###################################################################################################################################
# Registry for KiteFAST in the FAST Modularization Framework
# This Registry file is used to create MODULE KiteFAST  which contains all of the user-defined types needed in KiteFAST.
# It also contains copy, destroy, pack,  and unpack routines associated with each defined data types.
# See NWTC Programmer's Handbook for further information on the format/contents of this file.
#
# Entries are of the form
# <keyword>         <ModuleName/ModName>          <TypeName>          <FieldType>         <FieldName>         <Dims>    <IO>      <DNAME>   <DESCRIP> <UNITS>
#
# Use ^ as a shortcut for the value in the same column from the previous line.
# ...... Include files (definitions from NWTC Library and module components) ............................................................................
include Registry_NWTC_Library.txt
usefrom KiteAeroDyn_Registry.txt
usefrom InflowWind.txt
usefrom MoorDyn_Registry.txt
usefrom KiteFastController_Registry.txt
usefrom ActuatorDisk_Registry.txt
usefrom  VSM_Registry.txt
#
#
# ..... Initialization data .......................................................................................................
# Define inputs that the initialization routine may need here:
#   e.g.,  the name of the input file,  the file root name,etc.
#
typedef    KiteFAST/KFAST    KAD_Data          KAD_ParameterType       p        - - - "Parameter data for KiteAeroDyn module" -
typedef    KiteFAST/KFAST      ^               KAD_ContinuousStateType x        - - - "Continuous states for KiteAeroDyn module" -
typedef    ^                   ^               KAD_DiscreteStateType   xd       - - - "Discrete states for KiteAeroDyn module" -
typedef    ^                   ^               KAD_MiscVarType         m        - - - "Misc vars for KiteAeroDyn module" -
typedef    ^                   ^               KAD_InputType           u        - - - "Interpolated input data for KiteAeroDyn module" -
typedef    ^                   ^               KAD_OutputType          y        - - - "Interpolated output data for KiteAeroDyn module" -   
typedef    KiteFAST/KFAST    KAD_States        KAD_ConstraintStateType z        - - - "Constraint states for KiteAeroDyn module" -
#typedef    ^                   ^               KAD_ConstraintStateType z_copy   - - - "Constraint states for KiteAeroDyn module" - 
typedef    ^                   ^               KAD_OtherStateType      OtherSt  - - - "Other states for KiteAeroDyn module" -
typedef    ^                   ^               KAD_InputType           u      {:} - - "Input data for KiteAeroDyn module" -
typedef    ^                   ^               KAD_OutputType          y      {:}  - - "Output data for KiteAeroDyn module" -   
typedef    ^                   ^               DbKi                    t_in   {:} - - "Timesteps used in the u arrays"  
#typedef    ^                   ^               DbKi                    t_out  {:} - - "Timesteps used in the y arrays"  
typedef    KiteFAST/KFAST    IfW_Data          InflowWind_ParameterType       p  - - - "Parameter data for InflowWind module" -
typedef    ^                   ^               InflowWind_InputType           u  - - - "Input data for InflowWind module" -
typedef    ^                   ^               InflowWind_MiscVarType         m  - - - "Misc vars for InflowWind module" -
typedef    ^                   ^               InflowWind_ContinuousStateType x  - - - "Continuous states for InflowWind module" -
typedef    ^                   ^               InflowWind_DiscreteStateType   xd  - - - "Discrete states for InflowWind module" -
typedef    ^                   ^               InflowWind_ConstraintStateType z  - - - "Constraint states for InflowWind module" -
typedef    ^                   ^               InflowWind_OutputType          y  - - - "Output data for InflowWind module" -    
typedef    ^                   ^               InflowWind_InputType           u_KFC  - - - "Input data for KiteFAST controller module" -
typedef    ^                   ^               InflowWind_OutputType          y_KFC  - - - "Output data for KiteFAST controller module" -
typedef    KiteFAST/KFAST    IfW_States        InflowWind_OtherStateType      OtherSt  - - - "Other states for InflowWind module" -
typedef    KiteFAST/KFAST    MD_Data           MD_ParameterType        p  - - - "Parameter data for MoorDyn module" -
typedef    ^                   ^               MD_InputType            u  {2} - - "Input data for MoorDyn module" -
typedef    ^                   ^               MD_MiscVarType          m  - - - "Misc vars for MoorDyn module" -
typedef    ^                   ^               MD_DiscreteStateType    xd - - - "Discrete states for MoorDyn module" -
typedef    ^                   ^               MD_ConstraintStateType  z  - - - "Constraint states for MoorDyn module" -
typedef    ^                   ^               MD_OutputType           y  - - - "Output data for MoorDyn module" -   
typedef    KiteFAST/KFAST    MD_States         MD_ContinuousStateType  x  - - - "Continuous states for MoorDyn module" -
typedef    ^                   ^               MD_ContinuousStateType  x_copy  - - - "Continuous states copy for MoorDyn module" -
typedef    ^                   ^               MD_OtherStateType       OtherSt  - - - "Other states for MoorDyn module" -
typedef    KiteFAST/KFAST   KFC_Data           KFC_ParameterType       p  - - - "Parameter data for KiteFAST controller module" -
typedef    ^                   ^               KFC_InputType           u  - - - "Input data for KiteFAST controller module" -
typedef    ^                   ^               KFC_OutputType          y  - - - "Output data for KiteFAST controller module" -
typedef    ^                   ^               DbKi                    dt - - - "Time interval for KFC calculations" s
 
# ..... Misc/Optimization variables.................................................................................................
# Define any data that are used only for efficiency purposes (these variables are not associated with time):
#   e.g. indices for searching in an array, large arrays that are local variables in any routine called multiple times, etc.
typedef   ^    MiscVarType    KAD_Data         KAD              -    -   -  "KiteAeroDyn framework data" -
typedef   ^    MiscVarType    IfW_Data         IfW              -    -   -  "InflowWind framework data" -
typedef   ^    MiscVarType    MD_Data          MD_Tether        -    -   -  "MoorDyn framework data for the kite tether" -
typedef   ^    MiscVarType    KFC_Data         KFC              -    -   -  "KiteFAST Controller framework data" -
typedef   ^    MiscVarType    MeshType         mbdFusMotions    -    -   -  "" -
typedef   ^    MiscVarType    MeshType         mbdSWnMotions    -    -   -  "" -
typedef   ^    MiscVarType    MeshType         mbdPWnMotions    -    -   -  "" -
typedef   ^    MiscVarType    MeshType         mbdWngMotions    -    -   -  "" -
typedef   ^    MiscVarType    MeshType         mbdVSMotions     -    -   -  "" -
typedef   ^    MiscVarType    MeshType         mbdSHSMotions    -    -   -  "" -
typedef   ^    MiscVarType    MeshType         mbdPHSMotions    -    -   -  "" -
typedef   ^    MiscVarType    MeshType         mbdSPyMotions   {:}   -   -  "" -
typedef   ^    MiscVarType    MeshType         mbdPPyMotions   {:}   -   -  "" -
typedef   ^    MiscVarType    MeshType         mbdFusLoads      -    -   -  "" -
typedef   ^    MiscVarType    MeshType         mbdSWnLoads      -    -   -  "" -
typedef   ^    MiscVarType    MeshType         mbdPWnLoads      -    -   -  "" -
typedef   ^    MiscVarType    MeshType         mbdWngLoads      -    -   -  "" -
typedef   ^    MiscVarType    MeshType         mbdVSLoads       -    -   -  "" -
typedef   ^    MiscVarType    MeshType         mbdSHSLoads      -    -   -  "" -
typedef   ^    MiscVarType    MeshType         mbdPHSLoads      -    -   -  "" -
typedef   ^    MiscVarType    MeshType         mbdSPyLoads     {:}   -   -  "" -
typedef   ^    MiscVarType    MeshType         mbdPPyLoads     {:}   -   -  "" -
typedef   ^    MiscVarType    MeshType         mbdPtfmMotions   -    -   -  "" -
typedef   ^    MiscVarType    MeshType         mbdPtfmLoads     -    -   -  "" -
typedef   ^    MiscVarType    MeshMapType      Fus_L2_L2        -    -   -  "" - 
typedef   ^    MiscVarType    MeshMapType      SWn_L2_L2        -    -   -  "" - 
typedef   ^    MiscVarType    MeshMapType      PWn_L2_L2        -    -   -  "" - 
typedef   ^    MiscVarType    MeshMapType      VS_L2_L2         -    -   -  "" - 
typedef   ^    MiscVarType    MeshMapType      SHS_L2_L2        -    -   -  "" - 
typedef   ^    MiscVarType    MeshMapType      PHS_L2_L2        -    -   -  "" - 
typedef   ^    MiscVarType    MeshMapType      SPy_L2_L2       {:}   -   -  "" - 
typedef   ^    MiscVarType    MeshMapType      PPy_L2_L2       {:}   -   -  "" - 
typedef   ^    MiscVarType    MeshMapType      Fus_P_P          -    -   -  "" - 
typedef   ^    MiscVarType    MeshMapType      SWn_P_P          -    -   -  "" - 
typedef   ^    MiscVarType    MeshMapType      PWn_P_P          -    -   -  "" - 
typedef   ^    MiscVarType    MeshMapType      VS_P_P           -    -   -  "" - 
typedef   ^    MiscVarType    MeshMapType      SHS_P_P          -    -   -  "" - 
typedef   ^    MiscVarType    MeshMapType      PHS_P_P          -    -   -  "" - 
typedef   ^    MiscVarType    MeshMapType      SPy_P_P         {:}   -   -  "" - 
typedef   ^    MiscVarType    MeshMapType      PPy_P_P         {:}   -   -  "" - 
typedef   ^    MiscVarType    MeshMapType      MD_L2_2_P        -    -  - "" -
typedef   ^    MiscVarType    MeshMapType      MD_P_2_P         -    -  - "" -
typedef   ^    MiscVarType    MeshMapType      mbdPtfm_P_2_MD_P -    -  - "" -
typedef   ^    MiscVarType    MeshMapType      MD_P_2_mbdPtfm_P -    -  - "" -
typedef   ^    MiscVarType    ReKi             FusO          {3}     -  - "" m
typedef   ^    MiscVarType    ReKi             SWnO          {3}     -  - "" m
typedef   ^    MiscVarType    ReKi             PWnO          {3}     -  - "" m
typedef   ^    MiscVarType    ReKi             VSO           {3}     -  - "" m
typedef   ^    MiscVarType    ReKi             SHSO          {3}     -  - "" m
typedef   ^    MiscVarType    ReKi             PHSO          {3}     -  - "" m
typedef   ^    MiscVarType    ReKi             SPyO          {:}{:}  -  - "" m
typedef   ^    MiscVarType    ReKi             PPyO          {:}{:}  -  - "" m
typedef   ^    MiscVarType    ReKi             FusPts        {:}{:}  -  - "" m
typedef   ^    MiscVarType    ReKi             SWnPts        {:}{:}  -  - "" m
typedef   ^    MiscVarType    ReKi             PWnPts        {:}{:}  -  - "" m
typedef   ^    MiscVarType    ReKi             VSPts         {:}{:}  -  - "" m
typedef   ^    MiscVarType    ReKi             SHSPts        {:}{:}  -  - "" m
typedef   ^    MiscVarType    ReKi             PHSPts        {:}{:}  -  - "" m
typedef   ^    MiscVarType    ReKi             SPyPts      {:}{:}{:} -  - "" m
typedef   ^    MiscVarType    ReKi             PPyPts      {:}{:}{:} -  - "" m
typedef   ^    MiscVarType    ReKi             FusOv            {3}  -  - "" m/s
typedef   ^    MiscVarType    ReKi             FusVels       {:}{:}  -  - "" m/s
typedef   ^    MiscVarType    ReKi             SWnVels       {:}{:}  -  - "" m/s
typedef   ^    MiscVarType    ReKi             PWnVels       {:}{:}  -  - "" m/s
typedef   ^    MiscVarType    ReKi             VSVels        {:}{:}  -  - "" m/s
typedef   ^    MiscVarType    ReKi             SHSVels       {:}{:}  -  - "" m/s
typedef   ^    MiscVarType    ReKi             PHSVels       {:}{:}  -  - "" m/s
typedef   ^    MiscVarType    ReKi             SPyVels     {:}{:}{:} -  - "" m/s
typedef   ^    MiscVarType    ReKi             PPyVels     {:}{:}{:} -  - "" m/s
typedef   ^    MiscVarType    ReKi             FusOomegas       {3}  -  - "" rad/s
typedef   ^    MiscVarType    ReKi             FusOmegas     {:}{:}  -  - "" rad/s
typedef   ^    MiscVarType    ReKi             SWnOmegas     {:}{:}  -  - "" rad/s
typedef   ^    MiscVarType    ReKi             PWnOmegas     {:}{:}  -  - "" rad/s
typedef   ^    MiscVarType    ReKi             VSOmegas      {:}{:}  -  - "" rad/s
typedef   ^    MiscVarType    ReKi             SHSOmegas     {:}{:}  -  - "" rad/s
typedef   ^    MiscVarType    ReKi             PHSOmegas     {:}{:}  -  - "" rad/s
typedef   ^    MiscVarType    ReKi             SPyOmegas   {:}{:}{:} -  - "" rad/s
typedef   ^    MiscVarType    ReKi             PPyOmegas   {:}{:}{:} -  - "" rad/s
typedef   ^    MiscVarType    ReKi             FusOaccs         {3}  -  - "" m/s^2
typedef   ^    MiscVarType    ReKi             FusAccs       {:}{:}  -  - "" m/s^2
typedef   ^    MiscVarType    ReKi             SWnAccs       {:}{:}  -  - "" m/s^2
typedef   ^    MiscVarType    ReKi             PWnAccs       {:}{:}  -  - "" m/s^2
typedef   ^    MiscVarType    ReKi             VSAccs        {:}{:}  -  - "" m/s^2
typedef   ^    MiscVarType    ReKi             SHSAccs       {:}{:}  -  - "" m/s^2
typedef   ^    MiscVarType    ReKi             PHSAccs       {:}{:}  -  - "" m/s^2
typedef   ^    MiscVarType    ReKi             SPyAccs     {:}{:}{:} -  - "" m/s^2
typedef   ^    MiscVarType    ReKi             PPyAccs     {:}{:}{:} -  - "" m/s^2
typedef   ^    MiscVarType    ReKi             FusOalphas        {3}  -  - "" rad/s^2
typedef   ^    MiscVarType    ReKi             FusLoadInpts   {:}{:}  -  - "" N,Nm
typedef   ^    MiscVarType    ReKi             SWnLoadInpts   {:}{:}  -  - "" N,Nm
typedef   ^    MiscVarType    ReKi             PWnLoadInpts   {:}{:}  -  - "" N,Nm
typedef   ^    MiscVarType    ReKi             VSLoadInpts    {:}{:}  -  - "" N,Nm
typedef   ^    MiscVarType    ReKi             SHSLoadInpts   {:}{:}  -  - "" N,Nm
typedef   ^    MiscVarType    ReKi             PHSLoadInpts   {:}{:}  -  - "" N,Nm
typedef   ^    MiscVarType    ReKi             SPyLoadInpts {:}{:}{:} -  - "" N,Nm
typedef   ^    MiscVarType    ReKi             PPyLoadInpts {:}{:}{:} -  - "" N,Nm
typedef   ^    MiscVarType    ReKi             SPyRtrO     {:}{:}{:} -  - "" m
typedef   ^    MiscVarType    ReKi             PPyRtrO     {:}{:}{:} -  - "" m
typedef   ^    MiscVarType    ReKi             SPyRtrVels  {:}{:}{:} -  - "" m/s
typedef   ^    MiscVarType    ReKi             PPyRtrVels  {:}{:}{:} -  - "" m/s
typedef   ^    MiscVarType    R8Ki             SPyRtrDCMs {:}{:}{:}{:} - - "" -
typedef   ^    MiscVarType    R8Ki             PPyRtrDCMs {:}{:}{:}{:} - - "" -
typedef   ^    MiscVarType    ReKi             SPyRtrOmegas  {:}{:}{:} -  - "" rad/s
typedef   ^    MiscVarType    ReKi             PPyRtrOmegas  {:}{:}{:} -  - "" rad/s
typedef   ^    MiscVarType    ReKi             SPyRtrAccs  {:}{:}{:} -  - "" m/s^2
typedef   ^    MiscVarType    ReKi             PPyRtrAccs  {:}{:}{:} -  - "" m/s^2
typedef   ^    MiscVarType    ReKi             SPyRtrAlphas  {:}{:}{:} -  - "" rad/s^2
typedef   ^    MiscVarType    ReKi             PPyRtrAlphas  {:}{:}{:} -  - "" rad/s^2
typedef   ^    MiscVarType    R8Ki             FusODCM       {3}{3}  -  - "" -
typedef   ^    MiscVarType    R8Ki             FusNdDCMs   {:}{:}{:} -  - "" -
typedef   ^    MiscVarType    R8Ki             SWnNdDCMs   {:}{:}{:} -  - "" -
typedef   ^    MiscVarType    R8Ki             PWnNdDCMs   {:}{:}{:} -  - "" -
typedef   ^    MiscVarType    R8Ki             VsNdDCMs    {:}{:}{:} -  - "" -
typedef   ^    MiscVarType    R8Ki             SHSNdDCMs   {:}{:}{:} -  - "" -
typedef   ^    MiscVarType    R8Ki             PHSNdDCMs   {:}{:}{:} -  - "" -
typedef   ^    MiscVarType    R8Ki             SPyNdDCMs {:}{:}{:}{:} - - "" -
typedef   ^    MiscVarType    R8Ki             PPyNdDCMs {:}{:}{:}{:} - - "" -
typedef   ^    MiscVarType    ReKi             SPyRtrFReact {:}{:}{:} - - "" N
typedef   ^    MiscVarType    ReKi             PPyRtrFReact {:}{:}{:} - - "" N
typedef   ^    MiscVarType    ReKi             SPyRtrMReact {:}{:}{:} - - "" N-m
typedef   ^    MiscVarType    ReKi             PPyRtrMReact {:}{:}{:} - - "" N-m
typedef   ^    MiscVarType    ReKi             AllOuts     {3978} - - "" -
typedef   ^    MiscVarType    ReKi             WriteOutput   {:}      - - "" -
#
# ..... Parameters ................................................................................................................
# Define parameters here:
# Time step for integration of continuous states (if a fixed-step integrator is used) and update of discrete states:
#
typedef   ^  ParameterType  IntKi            numFlaps    -  -  -  "Number of flaps per wing" -
typedef   ^  ^              IntKi            numPylons   -  -  -  "Number of pylons per wing" -
typedef   ^  ^              IntKi            simMod      -  -  -  "Simulation model [1=onshore, 2=offshore, 3=offshore platform + mooring, only (no kite)]" -
typedef   ^  ^              IntKi            KAD_InterpOrder -  -  -  "KiteAeroDyn Interpolation order.  (0=hold, 1=linear, 2=2nd order)" -
typedef   ^  ^              Logical          useKAD      -  -  -  "Using KiteAeroDyn module?" -
typedef   ^  ^              Logical          useIfW      -  -  -  "Using InflowWind module?" -
typedef   ^  ^              Logical          useMD_Tether -  -  -  "Using MoorDyn module for the tether?" -
typedef   ^  ^              Logical          useKFC      -  -  -  "Using KiteFAST Controller module?" -
typedef   ^  ^              DbKi             dt          -  -  -  "Time interval for calculations" s
typedef   ^  ^              DbKi             KAD_dt      -  -  -  "Time interval for KAD calculations" s
typedef   ^  ^              DbKi             KAD_filtConst - - -  "KAD input Filter time constant, based on 10Hz cut-off freq." -
typedef   ^  ^              DbKi             KFC_dt      -  -  -  "Time interval for KFC calculations" s
typedef   ^  ^              IntKi            KFC_nCycles -  -  -  "Number of MBDyn steps until KFC step" -
typedef   ^  ^              IntKi            KAD_nCycles -  -  -  "Number of MBDyn steps until KFC step" -              
typedef   ^  ^              ReKi             AirDens     -  -  -  "Air density" kg/m^3
typedef   ^  ^              ReKi             Gravity     -  -  -  "Gravitational constant" m/s^2
typedef   ^  ^              IntKi            numFusNds   -  -  -  "Number of fuselage structural nodes" -
typedef   ^  ^              IntKi            numSwnNds   -  -  -  "Number of starboard wing structural nodes" -
typedef   ^  ^              IntKi            numPWnNds   -  -  -  "Number of port wing structural nodes" -
typedef   ^  ^              IntKi            numVSNds    -  -  -  "Number of vertical stabilizer structural nodes" -
typedef   ^  ^              IntKi            numSHSNds   -  -  -  "Number of starboard horizontal stabilizer structural nodes" -
typedef   ^  ^              IntKi            numPHSNds   -  -  -  "Number of port horizontal stabilizer structural nodes" -
typedef   ^  ^              IntKi            numSPyNds  {:} -  -  "Number of starboard pylon structural nodes" -
typedef   ^  ^              IntKi            numPPyNds  {:} -  -  "Number of port pylon structural nodes" -
typedef   ^  ^              ReKi             anchorPt   {3} -  -  "Anchor point for the kite tether" m
typedef   ^  ^              ReKi             DCM_Fast2Ctrl {3}{3} - - "DCM between FAST inertial and the Controller's reference frame" -
typedef   ^  ^              ReKi             SPyRtrMass   {:}{:}    - - "" kg
typedef   ^  ^              ReKi             PPyRtrMass   {:}{:}    - - "" kg
typedef   ^  ^              ReKi             SPyRtrIrot   {:}{:}    - - "" kg-m^2
typedef   ^  ^              ReKi             PPyRtrIrot   {:}{:}    - - "" kg-m^2
typedef   ^  ^              ReKi             SPyRtrItrans {:}{:}    - - "" kg-m^2
typedef   ^  ^              ReKi             PPyRtrItrans {:}{:}    - - "" kg-m^2
typedef   ^  ^              ReKi             SPyRtrXcm    {:}{:}    - - "" m
typedef   ^  ^              ReKi             PPyRtrXcm    {:}{:}    - - "" m
typedef   ^  ^              CHARACTER(1024)  outFileRoot -  -   -   "Rootname of the KiteFAST output file(s)"   -
typedef   ^  ^              IntKi            numOuts       -     0     -      "Total number of outputs requested (across all modules)"  -
typedef   ^  ^              IntKi            numKFASTOuts  -     0     -      "Number of KFAST-specific outputs requested"  -
typedef   ^  ^              IntKi            numKADOuts    -     0     -      "Number of KAD outputs requested" -
typedef   ^  ^              IntKi            numMDOuts     -     0     -      "Number of MD outputs requested"  -
typedef   ^  ^              IntKi            numIfWOuts    -     0     -      "Number of IfW outputs requested" -
typedef   ^  ^              IntKi            NFusOuts        -  0 - "" - 
typedef   ^  ^              IntKi            FusOutNds     {9}  - - "" - 
typedef   ^  ^              IntKi            NSWnOuts        -  0 - "" - 
typedef   ^  ^              IntKi            SWnOutNds     {9}  - - "" - 
typedef   ^  ^              IntKi            NPWnOuts        -  0 - "" - 
typedef   ^  ^              IntKi            PWnOutNds     {9}  - - "" - 
typedef   ^  ^              IntKi            NVSOuts        -  0 - "" - 
typedef   ^  ^              IntKi            VSOutNds     {9}  - - "" - 
typedef   ^  ^              IntKi            NSHSOuts        -  0 - "" - 
typedef   ^  ^              IntKi            SHSOutNds     {9}  - - "" - 
typedef   ^  ^              IntKi            NPHSOuts        -  0 - "" - 
typedef   ^  ^              IntKi            PHSOutNds     {9}  - - "" - 
typedef   ^  ^              IntKi            NPylOuts        -  0 - "" - 
typedef   ^  ^              IntKi            PylOutNds     {9}  - - "" - 
typedef   ^  ^              OutParmType      OutParam     {:}   -   -   "Names and units (and other characteristics) of all requested output parameters"    -
typedef   ^  ^              LOGICAL          TabDelim      -     -     -      "Flag to cause tab-delimited text output (delimited by space otherwise)"  -
typedef   ^  ^              CHARACTER(20)    OutFmt        -    -   -   "Output format for tabular data"    -
typedef   ^  ^              CHARACTER(20)    OutSFmt       -    -   -   "Output format for channel labels and units"    -
typedef   ^  ^              CHARACTER(1)     Delim         -    -   -   "Column delimiter for output text files"    -
typedef   ^  ^              IntKi            UnOutFile     -    -   -   "File unit for the KAD-generated output file"   -

# ..... Other States ................................................................................................................
typedef   ^  OtherStateType logical          KAD_NewTime         -     -   -  "flag indicating when to advanced time, and hence need to call the KAD's Step routines" -
typedef   ^  OtherStateType logical          KFC_NewTime         -     -   -  "flag indicating when to advanced time, and hence need to call the KFC's Step routines" -
typedef   ^  OtherStateType logical          doStartupInterp     -     -   -  "flag indicating whether the simulation is in startup and KAD_InterpOrder will be overridden to a setting of 0" -
typedef   ^  OtherStateType KAD_States       KAD                 -     -   -  "KiteAeroDyn framework states and historical inputs/outputs" -
typedef   ^  OtherStateType IfW_States       IfW                 -     -   -  "InflowWind framework states" -
typedef   ^  OtherStateType MD_States        MD_Tether           -     -   -  "MoorDyn tether framework states" -
#typedef   ^  OtherStateType KFC_States      KFC                 -     -   -  "KiteFAST Controller framework states and historical inputs/outputs" -
typedef   ^  ^              ReKi             windPt             {3}    -   -  "Previous timestep location of ground station" m
typedef   ^  ^              ReKi             totalFairLeadLoads {3}    -   -  "Previous timestep total fairlead loads from the tether module in global coordinates" N
typedef   ^  ^              DbKi             SPyRtrDCMs         {:}{:}{:}{:} - - "Previous timestep starboard rotor/nacelle DCM" -
typedef   ^  ^              DbKi             PPyRtrDCMs         {:}{:}{:}{:} - - "Previous timestep port rotor/nacelle DCM" -
typedef   ^  ^              ReKi             SPyRtrLoads        {:}{:}{:} -   -  "(2 x numPylons) Previous timestep rotor moments on the starboard rotors in global coordinates" N-m
typedef   ^  ^              ReKi             PPyRtrLoads        {:}{:}{:} -   -  "(2 x numPylons) Previous timestep rotor moments on the port rotors in global coordinates" N-m
typedef   ^  ^              ReKi             FusO               {3}    -   -  "fuselage (or kite) reference point location in global (inertial) coordinates at time t-p%dt" m
typedef   ^  ^              ReKi             FusOv              {3}    -   -  "fuselage reference point translational velocities in global (inertial) coordinates at time t-p%dt" m
typedef   ^  ^              ReKi             FusODCM            {3}{3} -   -  "fuselage reference point DCM to transform from global to kite coordinates at time t-p%dt"
typedef   ^  ^              ReKi             FusOomegas         {3}    -   -  "fuselage reference point rotational velocities in global coordinates at time t-p%dt" m/s
typedef   ^  ^              ReKi             FusOacc            {3}    -   -  "fuselage reference point accelerations in global coordinates at time t-p%dt" m/s^2
typedef   ^  ^              MD_InputType     MD_Tether_u         -     -   -  "The previous timesteps MoorDyn tether inputs" -