<?xml version="1.0" encoding="UTF-8"?>
<VisualStudioProject ProjectType="typeStaticLibrary" ProjectCreator="Intel Fortran" Keyword="Static Library" Version="11.0" ProjectIdGuid="{1A440C5B-ABA6-47D9-9CC2-C1CBA8C00BF9}">
	<Platforms>
		<Platform Name="Win32"/>
		<Platform Name="x64"/></Platforms>
	<Configurations>
		<Configuration Name="Debug|Win32" OutputDirectory="..\..\build\bin\" TargetName="$(ProjectName)_$(PlatformName)_Debug" ConfigurationType="typeStaticLibrary">
				<Tool Name="VFFortranCompilerTool" AdditionalOptions="/fpe-all:0" SuppressStartupBanner="true" DebugInformationFormat="debugEnabled" Optimization="optimizeDisabled" Preprocess="preprocessYes" AdditionalIncludeDirectories="..\..\build\types-files;..\..\OpenFAST\modules-local\nwtc-library\src" PreprocessorDefinitions="GIT_INCLUDE_FILE='$(ProjectDir)\..\gitVersionInfo.h'" StandardWarnings="standardWarningsF03" DisableSpecificDiagnostics="5268,5199" WarnDeclarations="true" WarnUnusedVariables="true" WarnUncalled="true" Traceback="true" BoundsCheck="true" StackFrameCheck="true" RuntimeLibrary="rtMultiThreadedDebug" UseMkl="mklSequential"/>
				<Tool Name="VFLibrarianTool"/>
				<Tool Name="VFResourceCompilerTool"/>
				<Tool Name="VFMidlTool" SuppressStartupBanner="true"/>
				<Tool Name="VFCustomBuildTool"/>
				<Tool Name="VFPreLinkEventTool"/>
				<Tool Name="VFPreBuildEventTool" CommandLine="..\CreateGitVersion.bat"/>
				<Tool Name="VFPostBuildEventTool"/></Configuration>
		<Configuration Name="Release|Win32" OutputDirectory="..\..\build\bin\" TargetName="$(ProjectName)_$(PlatformName)" ConfigurationType="typeStaticLibrary">
				<Tool Name="VFFortranCompilerTool" SuppressStartupBanner="true" Preprocess="preprocessYes" PreprocessorDefinitions="GIT_INCLUDE_FILE='$(ProjectDir)\..\gitVersionInfo.h'" StandardWarnings="standardWarningsF03" DisableSpecificDiagnostics="5268,5199" UseMkl="mklSequential"/>
				<Tool Name="VFLibrarianTool"/>
				<Tool Name="VFResourceCompilerTool"/>
				<Tool Name="VFMidlTool" SuppressStartupBanner="true"/>
				<Tool Name="VFCustomBuildTool"/>
				<Tool Name="VFPreLinkEventTool"/>
				<Tool Name="VFPreBuildEventTool" CommandLine="..\CreateGitVersion.bat"/>
				<Tool Name="VFPostBuildEventTool"/></Configuration>
		<Configuration Name="Debug|x64" OutputDirectory="..\..\build\bin\" TargetName="$(ProjectName)_$(PlatformName)_$(ConfigurationName)" ConfigurationType="typeStaticLibrary">
				<Tool Name="VFFortranCompilerTool" AdditionalOptions="/fpe-all:0" SuppressStartupBanner="true" DebugInformationFormat="debugEnabled" Optimization="optimizeDisabled" Preprocess="preprocessYes" PreprocessorDefinitions="GIT_INCLUDE_FILE='$(ProjectDir)\..\gitVersionInfo.h'" StandardWarnings="standardWarningsF03" DisableSpecificDiagnostics="5268,5199" WarnDeclarations="true" WarnUnusedVariables="true" WarnUncalled="true" Traceback="true" BoundsCheck="true" StackFrameCheck="true" RuntimeLibrary="rtMultiThreadedDebug" UseMkl="mklSequential"/>
				<Tool Name="VFLibrarianTool"/>
				<Tool Name="VFResourceCompilerTool"/>
				<Tool Name="VFMidlTool" SuppressStartupBanner="true" TargetEnvironment="midlTargetAMD64"/>
				<Tool Name="VFCustomBuildTool"/>
				<Tool Name="VFPreLinkEventTool"/>
				<Tool Name="VFPreBuildEventTool" CommandLine="..\CreateGitVersion.bat"/>
				<Tool Name="VFPostBuildEventTool"/></Configuration>
		<Configuration Name="Release|x64" OutputDirectory="..\..\build\bin\" TargetName="$(ProjectName)_$(PlatformName)_$(ConfigurationName)" ConfigurationType="typeStaticLibrary">
				<Tool Name="VFFortranCompilerTool" SuppressStartupBanner="true" Preprocess="preprocessYes" PreprocessorDefinitions="GIT_INCLUDE_FILE='$(ProjectDir)\..\gitVersionInfo.h'" StandardWarnings="standardWarningsF03" DisableSpecificDiagnostics="5268,5199" UseMkl="mklSequential"/>
				<Tool Name="VFLibrarianTool"/>
				<Tool Name="VFResourceCompilerTool"/>
				<Tool Name="VFMidlTool" SuppressStartupBanner="true" TargetEnvironment="midlTargetAMD64"/>
				<Tool Name="VFCustomBuildTool" AdditionalDependencies="terdf"/>
				<Tool Name="VFPreLinkEventTool"/>
				<Tool Name="VFPreBuildEventTool" CommandLine="..\CreateGitVersion.bat"/>
				<Tool Name="VFPostBuildEventTool"/></Configuration>
		<Configuration Name="Release_Matlab|Win32" OutputDirectory="..\..\build\bin\" TargetName="$(ProjectName)_$(PlatformName)_Matlab" ConfigurationType="typeStaticLibrary">
				<Tool Name="VFFortranCompilerTool" SuppressStartupBanner="true" Preprocess="preprocessYes" PreprocessorDefinitions="GIT_INCLUDE_FILE='$(ProjectDir)\..\gitVersionInfo.h'" StandardWarnings="standardWarningsF03" DisableSpecificDiagnostics="5268,5199" UseMkl="mklSequential"/>
				<Tool Name="VFLibrarianTool"/>
				<Tool Name="VFResourceCompilerTool"/>
				<Tool Name="VFMidlTool" SuppressStartupBanner="true"/>
				<Tool Name="VFCustomBuildTool"/>
				<Tool Name="VFPreLinkEventTool"/>
				<Tool Name="VFPreBuildEventTool" CommandLine="..\CreateGitVersion.bat"/>
				<Tool Name="VFPostBuildEventTool"/></Configuration>
		<Configuration Name="Release_Matlab|x64" OutputDirectory="..\..\build\bin\" TargetName="$(ProjectName)_$(PlatformName)_Matlab" ConfigurationType="typeStaticLibrary">
				<Tool Name="VFFortranCompilerTool" SuppressStartupBanner="true" Preprocess="preprocessYes" PreprocessorDefinitions="GIT_INCLUDE_FILE='$(ProjectDir)\..\gitVersionInfo.h'" StandardWarnings="standardWarningsF03" DisableSpecificDiagnostics="5268,5199" UseMkl="mklSequential"/>
				<Tool Name="VFLibrarianTool"/>
				<Tool Name="VFResourceCompilerTool"/>
				<Tool Name="VFMidlTool" SuppressStartupBanner="true" TargetEnvironment="midlTargetAMD64"/>
				<Tool Name="VFCustomBuildTool"/>
				<Tool Name="VFPreLinkEventTool"/>
				<Tool Name="VFPreBuildEventTool" CommandLine="..\CreateGitVersion.bat"/>
				<Tool Name="VFPostBuildEventTool"/></Configuration>
		<Configuration Name="Debug_Matlab|Win32" OutputDirectory="..\..\build\bin\" TargetName="$(ProjectName)_$(PlatformName)_Debug_Matlab" ConfigurationType="typeStaticLibrary">
				<Tool Name="VFFortranCompilerTool" AdditionalOptions="/fpe-all:0" SuppressStartupBanner="true" DebugInformationFormat="debugEnabled" Optimization="optimizeDisabled" Preprocess="preprocessYes" PreprocessorDefinitions="GIT_INCLUDE_FILE='$(ProjectDir)\..\gitVersionInfo.h'" StandardWarnings="standardWarningsF03" DisableSpecificDiagnostics="5268,5199" Traceback="true" BoundsCheck="true" StackFrameCheck="true" RuntimeLibrary="rtMultiThreadedDebug" UseMkl="mklSequential"/>
				<Tool Name="VFLibrarianTool"/>
				<Tool Name="VFResourceCompilerTool"/>
				<Tool Name="VFMidlTool" SuppressStartupBanner="true"/>
				<Tool Name="VFCustomBuildTool"/>
				<Tool Name="VFPreLinkEventTool"/>
				<Tool Name="VFPreBuildEventTool" CommandLine="..\CreateGitVersion.bat"/>
				<Tool Name="VFPostBuildEventTool"/></Configuration>
		<Configuration Name="Debug_Matlab|x64" OutputDirectory="..\..\build\bin\" TargetName="$(ProjectName)_$(PlatformName)_Debug_Matlab" ConfigurationType="typeStaticLibrary">
				<Tool Name="VFFortranCompilerTool" AdditionalOptions="/fpe-all:0" SuppressStartupBanner="true" DebugInformationFormat="debugEnabled" Optimization="optimizeDisabled" Preprocess="preprocessYes" PreprocessorDefinitions="GIT_INCLUDE_FILE='$(ProjectDir)\..\gitVersionInfo.h'" StandardWarnings="standardWarningsF03" DisableSpecificDiagnostics="5268,5199" Traceback="true" BoundsCheck="true" StackFrameCheck="true" RuntimeLibrary="rtMultiThreadedDebug" UseMkl="mklSequential"/>
				<Tool Name="VFLibrarianTool"/>
				<Tool Name="VFResourceCompilerTool"/>
				<Tool Name="VFMidlTool" SuppressStartupBanner="true" TargetEnvironment="midlTargetAMD64"/>
				<Tool Name="VFCustomBuildTool"/>
				<Tool Name="VFPreLinkEventTool"/>
				<Tool Name="VFPreBuildEventTool" CommandLine="..\CreateGitVersion.bat"/>
				<Tool Name="VFPostBuildEventTool"/></Configuration>
		<Configuration Name="Release_Double|Win32" OutputDirectory="..\..\build\bin\" TargetName="$(ProjectName)_$(PlatformName)_Double" ConfigurationType="typeStaticLibrary">
				<Tool Name="VFFortranCompilerTool" SuppressStartupBanner="true" Preprocess="preprocessYes" PreprocessorDefinitions="GIT_INCLUDE_FILE='$(ProjectDir)\..\gitVersionInfo.h';DOUBLE_PRECISION" StandardWarnings="standardWarningsF03" DisableSpecificDiagnostics="5268,5199" RealKIND="realKIND8" DoublePrecisionKIND="doublePrecisionKIND16" UseMkl="mklSequential"/>
				<Tool Name="VFLibrarianTool"/>
				<Tool Name="VFResourceCompilerTool"/>
				<Tool Name="VFMidlTool" SuppressStartupBanner="true"/>
				<Tool Name="VFCustomBuildTool"/>
				<Tool Name="VFPreLinkEventTool"/>
				<Tool Name="VFPreBuildEventTool" CommandLine="..\CreateGitVersion.bat"/>
				<Tool Name="VFPostBuildEventTool"/></Configuration>
		<Configuration Name="Release_Double|x64" OutputDirectory="..\..\build\bin\" IntermediateDirectory="$(PlatformName)\$(ConfigurationName)_Double" TargetName="$(ProjectName)_$(PlatformName)_$(ConfigurationName)" ConfigurationType="typeStaticLibrary">
				<Tool Name="VFFortranCompilerTool" SuppressStartupBanner="true" Preprocess="preprocessYes" PreprocessorDefinitions="GIT_INCLUDE_FILE='$(ProjectDir)\..\gitVersionInfo.h';DOUBLE_PRECISION" StandardWarnings="standardWarningsF03" DisableSpecificDiagnostics="5268,5199" RealKIND="realKIND8" DoublePrecisionKIND="doublePrecisionKIND16" UseMkl="mklSequential"/>
				<Tool Name="VFLibrarianTool"/>
				<Tool Name="VFResourceCompilerTool"/>
				<Tool Name="VFMidlTool" SuppressStartupBanner="true" TargetEnvironment="midlTargetAMD64"/>
				<Tool Name="VFCustomBuildTool"/>
				<Tool Name="VFPreLinkEventTool"/>
				<Tool Name="VFPreBuildEventTool" CommandLine="..\CreateGitVersion.bat"/>
				<Tool Name="VFPostBuildEventTool"/></Configuration>
		<Configuration Name="Debug_Double|Win32" OutputDirectory="..\..\build\bin\" TargetName="$(ProjectName)_$(PlatformName)_Debug_Double" ConfigurationType="typeStaticLibrary">
				<Tool Name="VFFortranCompilerTool" AdditionalOptions="/fpe-all:0" SuppressStartupBanner="true" DebugInformationFormat="debugEnabled" Optimization="optimizeDisabled" Preprocess="preprocessYes" AdditionalIncludeDirectories="..\..\build\types-files;..\..\OpenFAST\modules-local\nwtc-library\src" PreprocessorDefinitions="GIT_INCLUDE_FILE='$(ProjectDir)\..\gitVersionInfo.h';DOUBLE_PRECISION" StandardWarnings="standardWarningsF03" DisableSpecificDiagnostics="5268,5199" WarnDeclarations="true" WarnUnusedVariables="true" WarnUncalled="true" RealKIND="realKIND8" DoublePrecisionKIND="doublePrecisionKIND16" Traceback="true" BoundsCheck="true" StackFrameCheck="true" RuntimeLibrary="rtMultiThreadedDebug" UseMkl="mklSequential"/>
				<Tool Name="VFLibrarianTool"/>
				<Tool Name="VFResourceCompilerTool"/>
				<Tool Name="VFMidlTool" SuppressStartupBanner="true"/>
				<Tool Name="VFCustomBuildTool"/>
				<Tool Name="VFPreLinkEventTool"/>
				<Tool Name="VFPreBuildEventTool" CommandLine="..\CreateGitVersion.bat"/>
				<Tool Name="VFPostBuildEventTool"/></Configuration>
		<Configuration Name="Debug_Double|x64" OutputDirectory="..\..\build\bin\" TargetName="$(ProjectName)_$(PlatformName)_$(ConfigurationName)" ConfigurationType="typeStaticLibrary">
				<Tool Name="VFFortranCompilerTool" AdditionalOptions="/fpe-all:0" SuppressStartupBanner="true" DebugInformationFormat="debugEnabled" Optimization="optimizeDisabled" Preprocess="preprocessYes" PreprocessorDefinitions="GIT_INCLUDE_FILE='$(ProjectDir)\..\gitVersionInfo.h';DOUBLE_PRECISION" StandardWarnings="standardWarningsF03" DisableSpecificDiagnostics="5268,5199" WarnDeclarations="true" WarnUnusedVariables="true" WarnUncalled="true" RealKIND="realKIND8" DoublePrecisionKIND="doublePrecisionKIND16" Traceback="true" BoundsCheck="true" StackFrameCheck="true" RuntimeLibrary="rtMultiThreadedDebug" UseMkl="mklSequential"/>
				<Tool Name="VFLibrarianTool"/>
				<Tool Name="VFResourceCompilerTool"/>
				<Tool Name="VFMidlTool" SuppressStartupBanner="true" TargetEnvironment="midlTargetAMD64"/>
				<Tool Name="VFCustomBuildTool" AdditionalDependencies="asfasdf"/>
				<Tool Name="VFPreLinkEventTool"/>
				<Tool Name="VFPreBuildEventTool" CommandLine="..\CreateGitVersion.bat"/>
				<Tool Name="VFPostBuildEventTool"/></Configuration></Configurations>
	<Files>
		<Filter Name="Header Files" Filter="fi;fd"/>
		<Filter Name="Resource Files" Filter="rc;ico;cur;bmp;dlg;rc2;rct;bin;rgs;gif;jpg;jpeg;jpe">
		<File RelativePath="..\RunRegistry.bat">
			<FileConfiguration Name="Debug_Double|Win32" ExcludedFromBuild="true"/>
			<FileConfiguration Name="Release_Double|Win32" ExcludedFromBuild="true"/>
			<FileConfiguration Name="Debug|Win32" ExcludedFromBuild="true"/>
			<FileConfiguration Name="Release|x64" ExcludedFromBuild="true"/>
			<FileConfiguration Name="Debug|x64" ExcludedFromBuild="true"/>
			<FileConfiguration Name="Debug_Double|x64" ExcludedFromBuild="true"/>
			<FileConfiguration Name="Debug_Matlab|x64" ExcludedFromBuild="true"/>
			<FileConfiguration Name="Release_Double|x64" ExcludedFromBuild="true"/>
			<FileConfiguration Name="Release_Matlab|x64" ExcludedFromBuild="true"/>
			<FileConfiguration Name="Debug_Matlab|Win32" ExcludedFromBuild="true"/>
			<FileConfiguration Name="Release|Win32" ExcludedFromBuild="true"/>
			<FileConfiguration Name="Release_Matlab|Win32" ExcludedFromBuild="true"/></File></Filter>
		<Filter Name="Source Files" Filter="f90;for;f;fpp;ftn;def;odl;idl">
		<Filter Name="ActuatorDisk">
		<Filter Name="RegistryFiles">
		<File RelativePath="..\..\modules-local\actuatordisk\src\ActuatorDisk_Registry.txt">
			<FileConfiguration Name="Debug_Double|Win32">
				<Tool Name="VFCustomBuildTool" CommandLine="CALL ..\RunRegistry.bat ActuatorDisk" Description="Running Registry for ActuatorDisk" Outputs="..\..\build\types-files\KiteAeroDyn_Types.f90"/></FileConfiguration>
			<FileConfiguration Name="Debug|Win32">
				<Tool Name="VFCustomBuildTool" CommandLine="CALL ..\RunRegistry.bat ActuatorDisk" Description="Running Registry for ActuatorDisk" Outputs="..\..\build\types-files\KiteAeroDyn_Types.f90"/></FileConfiguration>
			<FileConfiguration Name="Release_Double|Win32">
				<Tool Name="VFCustomBuildTool" CommandLine="CALL ..\RunRegistry.bat ActuatorDisk" Description="Running Registry for ActuatorDisk" Outputs="..\..\build\types-files\KiteAeroDyn_Types.f90"/></FileConfiguration>
			<FileConfiguration Name="Release|x64">
				<Tool Name="VFCustomBuildTool" CommandLine="CALL ..\RunRegistry.bat ActuatorDisk" Description="Running Registry for ActuatorDisk" Outputs="..\..\build\types-files\KiteAeroDyn_Types.f90"/></FileConfiguration>
			<FileConfiguration Name="Debug|x64">
				<Tool Name="VFCustomBuildTool" CommandLine="CALL ..\RunRegistry.bat ActuatorDisk" Description="Running Registry for ActuatorDisk" Outputs="..\..\build\types-files\KiteAeroDyn_Types.f90"/></FileConfiguration>
			<FileConfiguration Name="Debug_Matlab|x64">
				<Tool Name="VFCustomBuildTool" CommandLine="CALL ..\RunRegistry.bat ActuatorDisk" Description="Running Registry for ActuatorDisk" Outputs="..\..\build\types-files\KiteAeroDyn_Types.f90"/></FileConfiguration>
			<FileConfiguration Name="Debug_Double|x64">
				<Tool Name="VFCustomBuildTool" CommandLine="CALL ..\RunRegistry.bat ActuatorDisk" Description="Running Registry for ActuatorDisk" Outputs="..\..\build\types-files\KiteAeroDyn_Types.f90"/></FileConfiguration>
			<FileConfiguration Name="Release|Win32">
				<Tool Name="VFCustomBuildTool" CommandLine="CALL ..\RunRegistry.bat ActuatorDisk" Description="Running Registry for ActuatorDisk" Outputs="..\..\build\types-files\KiteAeroDyn_Types.f90"/></FileConfiguration>
			<FileConfiguration Name="Debug_Matlab|Win32">
				<Tool Name="VFCustomBuildTool" CommandLine="CALL ..\RunRegistry.bat ActuatorDisk" Description="Running Registry for ActuatorDisk" Outputs="..\..\build\types-files\KiteAeroDyn_Types.f90"/></FileConfiguration>
			<FileConfiguration Name="Release_Matlab|x64">
				<Tool Name="VFCustomBuildTool" CommandLine="CALL ..\RunRegistry.bat ActuatorDisk" Description="Running Registry for ActuatorDisk" Outputs="..\..\build\types-files\KiteAeroDyn_Types.f90"/></FileConfiguration>
			<FileConfiguration Name="Release_Double|x64">
				<Tool Name="VFCustomBuildTool" CommandLine="CALL ..\RunRegistry.bat ActuatorDisk" Description="Running Registry for ActuatorDisk" Outputs="..\..\build\types-files\KiteAeroDyn_Types.f90"/></FileConfiguration>
			<FileConfiguration Name="Release_Matlab|Win32">
				<Tool Name="VFCustomBuildTool" CommandLine="CALL ..\RunRegistry.bat ActuatorDisk" Description="Running Registry for ActuatorDisk" Outputs="..\..\build\types-files\KiteAeroDyn_Types.f90"/></FileConfiguration></File>
		<File RelativePath="..\..\build\types-files\ActuatorDisk_Types.f90"/></Filter>
		<File RelativePath="..\..\modules-local\actuatordisk\src\ActuatorDisk.f90"/></Filter>
		<Filter Name="Aero">
		<Filter Name="AeroDyn">
		<Filter Name="RegistryFiles">
		<File RelativePath="..\..\modules-local\aerodyn\src\AirfoilInfo_Registry.txt">
			<FileConfiguration Name="Debug_Double|Win32">
				<Tool Name="VFCustomBuildTool" CommandLine="CALL ..\RunRegistry.bat AFI" Description="Running Registry for AirfoilInfo" Outputs="..\..\build\types-files\AirfoilInfo_Types.f90"/></FileConfiguration>
			<FileConfiguration Name="Release_Double|Win32">
				<Tool Name="VFCustomBuildTool" CommandLine="CALL ..\RunRegistry.bat AFI" Description="Running Registry for AirfoilInfo" Outputs="..\..\build\types-files\AirfoilInfo_Types.f90"/></FileConfiguration>
			<FileConfiguration Name="Debug|Win32">
				<Tool Name="VFCustomBuildTool" CommandLine="CALL ..\RunRegistry.bat AFI" Description="Running Registry for AirfoilInfo" Outputs="..\..\build\types-files\AirfoilInfo_Types.f90"/></FileConfiguration>
			<FileConfiguration Name="Release|x64">
				<Tool Name="VFCustomBuildTool" CommandLine="CALL ..\RunRegistry.bat AFI" Description="Running Registry for AirfoilInfo" Outputs="..\..\build\types-files\AirfoilInfo_Types.f90"/></FileConfiguration>
			<FileConfiguration Name="Debug|x64">
				<Tool Name="VFCustomBuildTool" CommandLine="CALL ..\RunRegistry.bat AFI" Description="Running Registry for AirfoilInfo" Outputs="..\..\build\types-files\AirfoilInfo_Types.f90"/></FileConfiguration>
			<FileConfiguration Name="Debug_Double|x64">
				<Tool Name="VFCustomBuildTool" CommandLine="CALL ..\RunRegistry.bat AFI" Description="Running Registry for AirfoilInfo" Outputs="..\..\build\types-files\AirfoilInfo_Types.f90"/></FileConfiguration>
			<FileConfiguration Name="Debug_Matlab|x64">
				<Tool Name="VFCustomBuildTool" CommandLine="CALL ..\RunRegistry.bat AFI" Description="Running Registry for AirfoilInfo" Outputs="..\..\build\types-files\AirfoilInfo_Types.f90"/></FileConfiguration>
			<FileConfiguration Name="Release_Double|x64">
				<Tool Name="VFCustomBuildTool" CommandLine="CALL ..\RunRegistry.bat AFI" Description="Running Registry for AirfoilInfo" Outputs="..\..\build\types-files\AirfoilInfo_Types.f90"/></FileConfiguration>
			<FileConfiguration Name="Release_Matlab|x64">
				<Tool Name="VFCustomBuildTool" CommandLine="CALL ..\RunRegistry.bat AFI" Description="Running Registry for AirfoilInfo" Outputs="..\..\build\types-files\AirfoilInfo_Types.f90"/></FileConfiguration>
			<FileConfiguration Name="Release|Win32">
				<Tool Name="VFCustomBuildTool" CommandLine="CALL ..\RunRegistry.bat AFI" Description="Running Registry for AirfoilInfo" Outputs="..\..\build\types-files\AirfoilInfo_Types.f90"/></FileConfiguration>
			<FileConfiguration Name="Debug_Matlab|Win32">
				<Tool Name="VFCustomBuildTool" CommandLine="CALL ..\RunRegistry.bat AFI" Description="Running Registry for AirfoilInfo" Outputs="..\..\build\types-files\AirfoilInfo_Types.f90"/></FileConfiguration>
			<FileConfiguration Name="Release_Matlab|Win32">
				<Tool Name="VFCustomBuildTool" CommandLine="CALL ..\RunRegistry.bat AFI" Description="Running Registry for AirfoilInfo" Outputs="..\..\build\types-files\AirfoilInfo_Types.f90"/></FileConfiguration></File>
		<File RelativePath="..\..\build\types-files\AirfoilInfo_Types.f90"/></Filter>
		<File RelativePath="..\..\modules-local\aerodyn\src\AirfoilInfo.f90"/></Filter>
		<Filter Name="InflowWind">
		<Filter Name="RegistryFiles">
		<File RelativePath="..\..\modules-local\inflowwind\src\IfW_4Dext.txt">
			<FileConfiguration Name="Debug_Double|Win32">
				<Tool Name="VFCustomBuildTool" CommandLine="CALL ..\RunRegistry.bat IfW_4Dext" Description="Running Registry for IfW_4Dext" Outputs="..\..\build\types-files\IfW_4Dext_Types.f90"/></FileConfiguration>
			<FileConfiguration Name="Debug|Win32">
				<Tool Name="VFCustomBuildTool" CommandLine="CALL ..\RunRegistry.bat IfW_4Dext" Description="Running Registry for IfW_4Dext" Outputs="..\..\build\types-files\IfW_4Dext_Types.f90"/></FileConfiguration>
			<FileConfiguration Name="Release_Double|Win32">
				<Tool Name="VFCustomBuildTool" CommandLine="CALL ..\RunRegistry.bat IfW_4Dext" Description="Running Registry for IfW_4Dext" Outputs="..\..\build\types-files\IfW_4Dext_Types.f90"/></FileConfiguration>
			<FileConfiguration Name="Release|x64">
				<Tool Name="VFCustomBuildTool" CommandLine="CALL ..\RunRegistry.bat IfW_4Dext" Description="Running Registry for IfW_4Dext" Outputs="..\..\build\types-files\IfW_4Dext_Types.f90"/></FileConfiguration>
			<FileConfiguration Name="Debug|x64">
				<Tool Name="VFCustomBuildTool" CommandLine="CALL ..\RunRegistry.bat IfW_4Dext" Description="Running Registry for IfW_4Dext" Outputs="..\..\build\types-files\IfW_4Dext_Types.f90"/></FileConfiguration>
			<FileConfiguration Name="Debug_Matlab|x64">
				<Tool Name="VFCustomBuildTool" CommandLine="CALL ..\RunRegistry.bat IfW_4Dext" Description="Running Registry for IfW_4Dext" Outputs="..\..\build\types-files\IfW_4Dext_Types.f90"/></FileConfiguration>
			<FileConfiguration Name="Debug_Double|x64">
				<Tool Name="VFCustomBuildTool" CommandLine="CALL ..\RunRegistry.bat IfW_4Dext" Description="Running Registry for IfW_4Dext" Outputs="..\..\build\types-files\IfW_4Dext_Types.f90"/></FileConfiguration>
			<FileConfiguration Name="Debug_Matlab|Win32">
				<Tool Name="VFCustomBuildTool" CommandLine="CALL ..\RunRegistry.bat IfW_4Dext" Description="Running Registry for IfW_4Dext" Outputs="..\..\build\types-files\IfW_4Dext_Types.f90"/></FileConfiguration>
			<FileConfiguration Name="Release|Win32">
				<Tool Name="VFCustomBuildTool" CommandLine="CALL ..\RunRegistry.bat IfW_4Dext" Description="Running Registry for IfW_4Dext" Outputs="..\..\build\types-files\IfW_4Dext_Types.f90"/></FileConfiguration>
			<FileConfiguration Name="Release_Matlab|x64">
				<Tool Name="VFCustomBuildTool" CommandLine="CALL ..\RunRegistry.bat IfW_4Dext" Description="Running Registry for IfW_4Dext" Outputs="..\..\build\types-files\IfW_4Dext_Types.f90"/></FileConfiguration>
			<FileConfiguration Name="Release_Double|x64">
				<Tool Name="VFCustomBuildTool" CommandLine="CALL ..\RunRegistry.bat IfW_4Dext" Description="Running Registry for IfW_4Dext" Outputs="..\..\build\types-files\IfW_4Dext_Types.f90"/></FileConfiguration>
			<FileConfiguration Name="Release_Matlab|Win32">
				<Tool Name="VFCustomBuildTool" CommandLine="CALL ..\RunRegistry.bat IfW_4Dext" Description="Running Registry for IfW_4Dext" Outputs="..\..\build\types-files\IfW_4Dext_Types.f90"/></FileConfiguration></File>
		<File RelativePath="..\..\build\types-files\IfW_4Dext_Types.f90"/>
		<File RelativePath="..\..\modules-local\inflowwind\src\IfW_BladedFFWind.txt">
			<FileConfiguration Name="Debug_Double|Win32">
				<Tool Name="VFCustomBuildTool" CommandLine="CALL ..\RunRegistry.bat IfW_BladedFFWind" Description="Running Registry for IfW_BladedFFWind" Outputs="..\..\build\types-files\IfW_BladedFFWind_Types.f90"/></FileConfiguration>
			<FileConfiguration Name="Debug|Win32">
				<Tool Name="VFCustomBuildTool" CommandLine="CALL ..\RunRegistry.bat IfW_BladedFFWind" Description="Running Registry for IfW_BladedFFWind" Outputs="..\..\build\types-files\IfW_BladedFFWind_Types.f90"/></FileConfiguration>
			<FileConfiguration Name="Release_Double|Win32">
				<Tool Name="VFCustomBuildTool" CommandLine="CALL ..\RunRegistry.bat IfW_BladedFFWind" Description="Running Registry for IfW_BladedFFWind" Outputs="..\..\build\types-files\IfW_BladedFFWind_Types.f90"/></FileConfiguration>
			<FileConfiguration Name="Release|x64">
				<Tool Name="VFCustomBuildTool" CommandLine="CALL ..\RunRegistry.bat IfW_BladedFFWind" Description="Running Registry for IfW_BladedFFWind" Outputs="..\..\build\types-files\IfW_BladedFFWind_Types.f90"/></FileConfiguration>
			<FileConfiguration Name="Debug|x64">
				<Tool Name="VFCustomBuildTool" CommandLine="CALL ..\RunRegistry.bat IfW_BladedFFWind" Description="Running Registry for IfW_BladedFFWind" Outputs="..\..\build\types-files\IfW_BladedFFWind_Types.f90"/></FileConfiguration>
			<FileConfiguration Name="Debug_Matlab|x64">
				<Tool Name="VFCustomBuildTool" CommandLine="CALL ..\RunRegistry.bat IfW_BladedFFWind" Description="Running Registry for IfW_BladedFFWind" Outputs="..\..\build\types-files\IfW_BladedFFWind_Types.f90"/></FileConfiguration>
			<FileConfiguration Name="Debug_Double|x64">
				<Tool Name="VFCustomBuildTool" CommandLine="CALL ..\RunRegistry.bat IfW_BladedFFWind" Description="Running Registry for IfW_BladedFFWind" Outputs="..\..\build\types-files\IfW_BladedFFWind_Types.f90"/></FileConfiguration>
			<FileConfiguration Name="Debug_Matlab|Win32">
				<Tool Name="VFCustomBuildTool" CommandLine="CALL ..\RunRegistry.bat IfW_BladedFFWind" Description="Running Registry for IfW_BladedFFWind" Outputs="..\..\build\types-files\IfW_BladedFFWind_Types.f90"/></FileConfiguration>
			<FileConfiguration Name="Release|Win32">
				<Tool Name="VFCustomBuildTool" CommandLine="CALL ..\RunRegistry.bat IfW_BladedFFWind" Description="Running Registry for IfW_BladedFFWind" Outputs="..\..\build\types-files\IfW_BladedFFWind_Types.f90"/></FileConfiguration>
			<FileConfiguration Name="Release_Matlab|x64">
				<Tool Name="VFCustomBuildTool" CommandLine="CALL ..\RunRegistry.bat IfW_BladedFFWind" Description="Running Registry for IfW_BladedFFWind" Outputs="..\..\build\types-files\IfW_BladedFFWind_Types.f90"/></FileConfiguration>
			<FileConfiguration Name="Release_Double|x64">
				<Tool Name="VFCustomBuildTool" CommandLine="CALL ..\RunRegistry.bat IfW_BladedFFWind" Description="Running Registry for IfW_BladedFFWind" Outputs="..\..\build\types-files\IfW_BladedFFWind_Types.f90"/></FileConfiguration>
			<FileConfiguration Name="Release_Matlab|Win32">
				<Tool Name="VFCustomBuildTool" CommandLine="CALL ..\RunRegistry.bat IfW_BladedFFWind" Description="Running Registry for IfW_BladedFFWind" Outputs="..\..\build\types-files\IfW_BladedFFWind_Types.f90"/></FileConfiguration></File>
		<File RelativePath="..\..\build\types-files\IfW_BladedFFWind_Types.f90"/>
		<File RelativePath="..\..\modules-local\inflowwind\src\IfW_HAWCWind.txt">
			<FileConfiguration Name="Debug_Double|Win32">
				<Tool Name="VFCustomBuildTool" CommandLine="CALL ..\RunRegistry.bat IfW_HAWCWind" Description="Running Registry for IfW_HAWCWindWind" Outputs="..\..\build\types-files\IfW_HAWCWind_Types.f90"/></FileConfiguration>
			<FileConfiguration Name="Debug|Win32">
				<Tool Name="VFCustomBuildTool" CommandLine="CALL ..\RunRegistry.bat IfW_HAWCWind" Description="Running Registry for IfW_HAWCWindWind" Outputs="..\..\build\types-files\IfW_HAWCWind_Types.f90"/></FileConfiguration>
			<FileConfiguration Name="Release_Double|Win32">
				<Tool Name="VFCustomBuildTool" CommandLine="CALL ..\RunRegistry.bat IfW_HAWCWind" Description="Running Registry for IfW_HAWCWindWind" Outputs="..\..\build\types-files\IfW_HAWCWind_Types.f90"/></FileConfiguration>
			<FileConfiguration Name="Release|x64">
				<Tool Name="VFCustomBuildTool" CommandLine="CALL ..\RunRegistry.bat IfW_HAWCWind" Description="Running Registry for IfW_HAWCWindWind" Outputs="..\..\build\types-files\IfW_HAWCWind_Types.f90"/></FileConfiguration>
			<FileConfiguration Name="Debug|x64">
				<Tool Name="VFCustomBuildTool" CommandLine="CALL ..\RunRegistry.bat IfW_HAWCWind" Description="Running Registry for IfW_HAWCWindWind" Outputs="..\..\build\types-files\IfW_HAWCWind_Types.f90"/></FileConfiguration>
			<FileConfiguration Name="Debug_Matlab|x64">
				<Tool Name="VFCustomBuildTool" CommandLine="CALL ..\RunRegistry.bat IfW_HAWCWind" Description="Running Registry for IfW_HAWCWindWind" Outputs="..\..\build\types-files\IfW_HAWCWind_Types.f90"/></FileConfiguration>
			<FileConfiguration Name="Debug_Double|x64">
				<Tool Name="VFCustomBuildTool" CommandLine="CALL ..\RunRegistry.bat IfW_HAWCWind" Description="Running Registry for IfW_HAWCWindWind" Outputs="..\..\build\types-files\IfW_HAWCWind_Types.f90"/></FileConfiguration>
			<FileConfiguration Name="Debug_Matlab|Win32">
				<Tool Name="VFCustomBuildTool" CommandLine="CALL ..\RunRegistry.bat IfW_HAWCWind" Description="Running Registry for IfW_HAWCWindWind" Outputs="..\..\build\types-files\IfW_HAWCWind_Types.f90"/></FileConfiguration>
			<FileConfiguration Name="Release|Win32">
				<Tool Name="VFCustomBuildTool" CommandLine="CALL ..\RunRegistry.bat IfW_HAWCWind" Description="Running Registry for IfW_HAWCWindWind" Outputs="..\..\build\types-files\IfW_HAWCWind_Types.f90"/></FileConfiguration>
			<FileConfiguration Name="Release_Matlab|x64">
				<Tool Name="VFCustomBuildTool" CommandLine="CALL ..\RunRegistry.bat IfW_HAWCWind" Description="Running Registry for IfW_HAWCWindWind" Outputs="..\..\build\types-files\IfW_HAWCWind_Types.f90"/></FileConfiguration>
			<FileConfiguration Name="Release_Double|x64">
				<Tool Name="VFCustomBuildTool" CommandLine="CALL ..\RunRegistry.bat IfW_HAWCWind" Description="Running Registry for IfW_HAWCWindWind" Outputs="..\..\build\types-files\IfW_HAWCWind_Types.f90"/></FileConfiguration>
			<FileConfiguration Name="Release_Matlab|Win32">
				<Tool Name="VFCustomBuildTool" CommandLine="CALL ..\RunRegistry.bat IfW_HAWCWind" Description="Running Registry for IfW_HAWCWindWind" Outputs="..\..\build\types-files\IfW_HAWCWind_Types.f90"/></FileConfiguration></File>