! ------------ AirfoilInfo 1.00.* Input File ----------------------------------
! Airfoil properties to be used with AeroDyn v15
! Individual tables must include alpha from -180 to 180 degrees
! Multiple tables should contain the same quantity and values for Alpha, and the secondary parameter must be monotonically increasing
! ------------------------------------------------------------------------------
! This is auto generated using GetAirfoilTableFiles.m.
! If manually edited, please document the changes made below.
! ChangeLog: AutoGen on 09-Feb-2018 14:53:22.
! ------------------------------------------------------------------------------
1         InterpOrd           ! Interpolation order to use for quasi-steady table lookup {1=linear; 3=cubic spline; "default"} [default = 3]
1.0       NonDimArea          ! Non-dimensional area of the airfoil (area/chord^2) (Set to 1.0 if unsure or unneeded)
0         NumCoords           ! Number of coordinates in the airfoil shape file. Set to zero if not included.
4         NumTabs             ! Number of airfoil tables in this file. Each table must have lines for Re and Ctrl.
! ------------------------------------------------------------------------------
! data for Table  1
! ------------------------------------------------------------------------------
5582449   Re                  ! Reynolds number in millions.
-0.349066       Ctrl                ! Control setting (-20 deg = -0.349066)
False     InclUAdata          ! Is unsteady aerodynamics data included in this table? If TRUE, then include 30 UA coefs below this line.
!----------------------------------------
! Table of aerodynamic coefficients.
361       NumAlf              ! Number of data lines in the following CoeffData table
!    Alpha      Cl      Cd        Cm
!    (deg)      (-)     (-)       (-)
    -180.0   0.00000   0.00000   0.00000
    -179.0   0.03315   0.00058   0.00000
    -178.0   0.06627   0.00231   0.00000
    -177.0   0.09930   0.00520   0.00000
    -176.0   0.13221   0.00925   0.00000
    -175.0   0.16497   0.01443   0.00000
    -174.0   0.19752   0.02076   0.00000
    -173.0   0.22983   0.02822   0.00000
    -172.0   0.26186   0.03680   0.00000
    -171.0   0.29357   0.04650   0.00000
    -170.0   0.32492   0.05729   0.00000
    -169.0   0.35588   0.06918   0.00000
    -168.0   0.38640   0.08213   0.00000
    -167.0   0.41645   0.09615   0.00000
    -166.0   0.44600   0.11120   0.00000
    -165.0   0.47500   0.12728   0.00000
    -164.0   0.50342   0.14435   0.00000
    -163.0   0.53123   0.16241   0.00000
    -162.0   0.55840   0.18143   0.00000
    -161.0   0.58488   0.20139   0.00000
    -160.0   0.61065   0.22226   0.00000
    -159.0   0.63567   0.24401   0.00000
    -158.0   0.65993   0.26663   0.00000
    -157.0   0.68337   0.29007   0.00000
    -156.0   0.70599   0.31433   0.00000
    -155.0   0.72774   0.33935   0.00000
    -154.0   0.74861   0.36512   0.00000
    -153.0   0.76857   0.39160   0.00000
    -152.0   0.78759   0.41877   0.00000
    -151.0   0.80565   0.44658   0.00000
    -150.0   0.82272   0.47500   0.00000
    -149.0   0.83880   0.50400   0.00000
    -148.0   0.85385   0.53355   0.00000
    -147.0   0.86787   0.56360   0.00000
    -146.0   0.88082   0.59412   0.00000
    -145.0   0.89271   0.62508   0.00000
    -144.0   0.90350   0.65643   0.00000
    -143.0   0.91320   0.68814   0.00000
    -142.0   0.92178   0.72017   0.00000
    -141.0   0.92924   0.75248   0.00000
    -140.0   0.93557   0.78503   0.00000
    -139.0   0.94075   0.81779   0.00000
    -138.0   0.94480   0.85070   0.00000
    -137.0   0.94769   0.88373   0.00000
    -136.0   0.94942   0.91685   0.00000
    -135.0   0.95000   0.95000   0.00000
    -134.0   0.94942   0.98315   0.00000
    -133.0   0.94769   1.01627   0.00000
    -132.0   0.94480   1.04930   0.00000
    -131.0   0.94075   1.08221   0.00000
    -130.0   0.93557   1.11497   0.00000
    -129.0   0.92924   1.14752   0.00000
    -128.0   0.92178   1.17983   0.00000
    -127.0   0.91320   1.21186   0.00000
    -126.0   0.90350   1.24357   0.00000
    -125.0   0.89271   1.27492   0.00000
    -124.0   0.88082   1.30588   0.00000
    -123.0   0.86787   1.33640   0.00000
    -122.0   0.85385   1.36645   0.00000
    -121.0   0.83880   1.39600   0.00000
    -120.0   0.82272   1.42500   0.00000
    -119.0   0.80565   1.45342   0.00000
    -118.0   0.78759   1.48123   0.00000
    -117.0   0.76857   1.50840   0.00000
    -116.0   0.74861   1.53488   0.00000
    -115.0   0.72774   1.56065   0.00000
    -114.0   0.70599   1.58567   0.00000
    -113.0   0.68337   1.60993   0.00000
    -112.0   0.65993   1.63337   0.00000
    -111.0   0.63567   1.65599   0.00000
    -110.0   0.61065   1.67774   0.00000
    -109.0   0.58488   1.69861   0.00000
    -108.0   0.55840   1.71857   0.00000
    -107.0   0.53123   1.73759   0.00000
    -106.0   0.50342   1.75565   0.00000
    -105.0   0.47500   1.77272   0.00000
    -104.0   0.44600   1.78880   0.00000
    -103.0   0.41645   1.80385   0.00000
    -102.0   0.38640   1.81787   0.00000
    -101.0   0.35588   1.83082   0.00000
    -100.0   0.32492   1.84271   0.00000
     -99.0   0.29357   1.85350   0.00000
     -98.0   0.26186   1.86320   0.00000
     -97.0   0.22983   1.87178   0.00000
     -96.0   0.19752   1.87924   0.00000
     -95.0   0.16497   1.88557   0.00000
     -94.0   0.13221   1.89075   0.00000
     -93.0   0.09930   1.89480   0.00000
     -92.0   0.06627   1.89769   0.00000
     -91.0   0.03315   1.89942   0.00000
     -90.0  -0.00000   1.90000   0.00000
     -89.0  -0.03315   1.89942   0.00000
     -88.0  -0.06627   1.89769   0.00000
     -87.0  -0.09930   1.89480   0.00000
     -86.0  -0.13221   1.89075   0.00000
     -85.0  -0.16497   1.88557   0.00000
     -84.0  -0.19752   1.87924   0.00000
     -83.0  -0.22983   1.87178   0.00000
     -82.0  -0.26186   1.86320   0.00000
     -81.0  -0.29357   1.85350   0.00000
     -80.0  -0.32492   1.84271   0.00000
     -79.0  -0.35588   1.83082   0.00000
     -78.0  -0.38640   1.81787   0.00000
     -77.0  -0.41645   1.80385   0.00000
     -76.0  -0.44600   1.78880   0.00000
     -75.0  -0.47500   1.77272   0.00000
     -74.0  -0.50342   1.75565   0.00000
     -73.0  -0.53123   1.73759   0.00000
     -72.0  -0.55840   1.71857   0.00000
     -71.0  -0.58488   1.69861   0.00000
     -70.0  -0.61065   1.67774   0.00000
     -69.0  -0.63567   1.65599   0.00000
     -68.0  -0.65993   1.63337   0.00000
     -67.0  -0.68337   1.60993   0.00000
     -66.0  -0.70599   1.58567   0.00000
     -65.0  -0.72774   1.56065   0.00000
     -64.0  -0.74861   1.53488   0.00000
     -63.0  -0.76857   1.50840   0.00000
     -62.0  -0.78759   1.48123   0.00000
     -61.0  -0.80565   1.45342   0.00000
     -60.0  -0.82272   1.42500   0.00000
     -59.0  -0.83880   1.39600   0.00000
     -58.0  -0.85385   1.36645   0.00000
     -57.0  -0.86787   1.33640   0.00000
     -56.0  -0.88082   1.30588   0.00000
     -55.0  -0.89271   1.27492   0.00000
     -54.0  -0.90350   1.24357   0.00000
     -53.0  -0.91320   1.21186   0.00000
     -52.0  -0.92178   1.17983   0.00000
     -51.0  -0.92924   1.14752   0.00000
     -50.0  -0.93557   1.11497   0.00000
     -49.0  -0.94075   1.08221   0.00000
     -48.0  -0.94480   1.04930   0.00000
     -47.0  -0.94769   1.01627   0.00000
     -46.0  -0.94942   0.98315   0.00000
     -45.0  -0.95000   0.95000   0.00000
     -44.0  -0.94942   0.91685   0.00000
     -43.0  -0.94769   0.88373   0.00000
     -42.0  -0.94480   0.85070   0.00000
     -41.0  -0.94075   0.81779   0.00000
     -40.0  -0.93557   0.78503   0.00000
     -39.0  -0.92924   0.75248   0.00000
     -38.0  -0.92178   0.72017   0.00000
     -37.0  -0.91320   0.68814   0.00000
     -36.0  -0.90350   0.65643   0.00000
     -35.0  -0.89271   0.62508   0.00000
     -34.0  -0.88082   0.59412   0.00000
     -33.0  -0.86787   0.56360   0.00000
     -32.0  -0.85385   0.53355   0.00000
     -31.0  -0.83880   0.50400   0.00000
     -30.0  -0.82272   0.47500   0.00000
     -29.0  -0.80565   0.44658   0.00000
     -28.0  -0.78759   0.41877   0.00000
     -27.0  -0.76857   0.39160   0.00000
     -26.0  -0.74861   0.36512   0.00000
     -25.0  -0.72774   0.33935   0.00000
     -24.0  -0.70599   0.31433   0.00000
     -23.0  -0.68337   0.29007   0.00000
     -22.0  -0.65993   0.26663   0.00000
     -21.0  -0.63567   0.24401   0.00000
     -20.0  -0.61065   0.22226   0.00000
     -19.0  -0.58488   0.20139   0.00000
     -18.0  -0.55840   0.18143   0.00000
     -17.0  -0.53123   0.16241   0.00000
     -16.0  -0.50342   0.14435   0.00000
     -15.0  -0.47500   0.12728   0.00000
     -14.0  -0.44600   0.11120   0.00000
     -13.0  -0.41645   0.09615   0.00000
     -12.0  -0.38640   0.08213   0.00000
     -11.0  -0.35588   0.06918   0.00000
     -10.0  -0.32492   0.05729   0.00000
      -9.0  -0.29357   0.04650   0.00000
      -8.0  -0.26186   0.03680   0.00000
      -7.0  -0.22983   0.02822   0.00000
      -6.0  -0.19752   0.02076   0.00000
      -5.0  -0.16497   0.01443   0.00000
      -4.0  -0.13221   0.00925   0.00000
      -3.0  -0.09930   0.00520   0.00000
      -2.0  -0.27638   0.01781  -0.06854
      -1.0  -0.17191   0.01642  -0.07301
       0.0  -0.06266   0.01546  -0.07620
       1.0   0.05060   0.01443  -0.08015
       2.0   0.16537   0.01343  -0.08407
       3.0   0.28488   0.01270  -0.08719
       4.0   0.40697   0.01196  -0.09036
       5.0   0.53153   0.01129  -0.09358
       6.0   0.65809   0.01065  -0.09675
       7.0   0.78821   0.00963  -0.10061
       8.0   0.91975   0.00837  -0.10432
       9.0   1.04157   0.00865  -0.10567
      10.0   1.16221   0.00901  -0.10713
      11.0   1.28286   0.00937  -0.10859
      12.0   1.40256   0.00976  -0.11025
      13.0   1.52097   0.01019  -0.11192
      14.0   1.63718   0.01068  -0.11360
      15.0   1.75338   0.01116  -0.11528
      16.0   1.86783   0.01175  -0.11710
      17.0   1.98116   0.01236  -0.11898
      18.0   2.09240   0.01311  -0.12086
      19.0   2.20151   0.01386  -0.12268
      20.0   2.30696   0.01479  -0.12430
      21.0   2.41522   0.01582  -0.12690
      22.0   2.52290   0.01704  -0.13019
      23.0   2.62524   0.01864  -0.13341
      24.0   2.71886   0.02028  -0.13538
      25.0   2.80114   0.02264  -0.13704
      26.0   2.83539   0.02855  -0.13755
      27.0   2.86964   0.03445  -0.13807
      28.0   2.81341   0.04647  -0.13471
      29.0   0.80565   0.44658   0.00000
      30.0   0.82272   0.47500   0.00000
      31.0   0.83880   0.50400   0.00000
      32.0   0.85385   0.53355   0.00000
      33.0   0.86787   0.56360   0.00000
      34.0   0.88082   0.59412   0.00000
      35.0   0.89271   0.62508   0.00000
      36.0   0.90350   0.65643   0.00000
      37.0   0.91320   0.68814   0.00000
      38.0   0.92178   0.72017   0.00000
      39.0   0.92924   0.75248   0.00000
      40.0   0.93557   0.78503   0.00000
      41.0   0.94075   0.81779   0.00000
      42.0   0.94480   0.85070   0.00000
      43.0   0.94769   0.88373   0.00000
      44.0   0.94942   0.91685   0.00000
      45.0   0.95000   0.95000   0.00000
      46.0   0.94942   0.98315   0.00000
      47.0   0.94769   1.01627   0.00000
      48.0   0.94480   1.04930   0.00000
      49.0   0.94075   1.08221   0.00000
      50.0   0.93557   1.11497   0.00000
      51.0   0.92924   1.14752   0.00000
      52.0   0.92178   1.17983   0.00000
      53.0   0.91320   1.21186   0.00000
      54.0   0.90350   1.24357   0.00000
      55.0   0.89271   1.27492   0.00000
      56.0   0.88082   1.30588   0.00000
      57.0   0.86787   1.33640   0.00000
      58.0   0.85385   1.36645   0.00000
      59.0   0.83880   1.39600   0.00000
      60.0   0.82272   1.42500   0.00000
      61.0   0.80565   1.45342   0.00000
      62.0   0.78759   1.48123   0.00000
      63.0   0.76857   1.50840   0.00000
      64.0   0.74861   1.53488   0.00000
      65.0   0.72774   1.56065   0.00000
      66.0   0.70599   1.58567   0.00000
      67.0   0.68337   1.60993   0.00000
      68.0   0.65993   1.63337   0.00000
      69.0   0.63567   1.65599   0.00000
      70.0   0.61065   1.67774   0.00000
      71.0   0.58488   1.69861   0.00000
      72.0   0.55840   1.71857   0.00000
      73.0   0.53123   1.73759   0.00000
      74.0   0.50342   1.75565   0.00000
      75.0   0.47500   1.77272   0.00000
      76.0   0.44600   1.78880   0.00000
      77.0   0.41645   1.80385   0.00000
      78.0   0.38640   1.81787   0.00000
      79.0   0.35588   1.83082   0.00000
      80.0   0.32492   1.84271   0.00000
      81.0   0.29357   1.85350   0.00000
      82.0   0.26186   1.86320   0.00000
      83.0   0.22983   1.87178   0.00000
      84.0   0.19752   1.87924   0.00000
      85.0   0.16497   1.88557   0.00000
      86.0   0.13221   1.89075   0.00000
      87.0   0.09930   1.89480   0.00000
      88.0   0.06627   1.89769   0.00000
      89.0   0.03315   1.89942   0.00000
      90.0   0.00000   1.90000   0.00000
      91.0  -0.03315   1.89942   0.00000
      92.0  -0.06627   1.89769   0.00000
      93.0  -0.09930   1.89480   0.00000
      94.0  -0.13221   1.89075   0.00000
      95.0  -0.16497   1.88557   0.00000
      96.0  -0.19752   1.87924   0.00000
      97.0  -0.22983   1.87178   0.00000
      98.0  -0.26186   1.86320   0.00000
      99.0  -0.29357   1.85350   0.00000
     100.0  -0.32492   1.84271   0.00000
     101.0  -0.35588   1.83082   0.00000
     102.0  -0.38640   1.81787   0.00000
     103.0  -0.41645   1.80385   0.00000
     104.0  -0.44600   1.78880   0.00000
     105.0  -0.47500   1.77272   0.00000
     106.0  -0.50342   1.75565   0.00000
     107.0  -0.53123   1.73759   0.00000
     108.0  -0.55840   1.71857   0.00000
     109.0  -0.58488   1.69861   0.00000
     110.0  -0.61065   1.67774   0.00000
     111.0  -0.63567   1.65599   0.00000
     112.0  -0.65993   1.63337   0.00000
     113.0  -0.68337   1.60993   0.00000
     114.0  -0.70599   1.58567   0.00000
     115.0  -0.72774   1.56065   0.00000
     116.0  -0.74861   1.53488   0.00000
     117.0  -0.76857   1.50840   0.00000
     118.0  -0.78759   1.48123   0.00000
     119.0  -0.80565   1.45342   0.00000
     120.0  -0.82272   1.42500   0.00000
     121.0  -0.83880   1.39600   0.00000
     122.0  -0.85385   1.36645   0.00000
     123.0  -0.86787   1.33640   0.00000
     124.0  -0.88082   1.30588   0.00000
     125.0  -0.89271   1.27492   0.00000
     126.0  -0.90350   1.24357   0.00000
     127.0  -0.91320   1.21186   0.00000
     128.0  -0.92178   1.17983   0.00000
     129.0  -0.92924   1.14752   0.00000
     130.0  -0.93557   1.11497   0.00000
     131.0  -0.94075   1.08221   0.00000
     132.0  -0.94480   1.04930   0.00000
     133.0  -0.94769   1.01627   0.00000
     134.0  -0.94942   0.98315   0.00000
     135.0  -0.95000   0.95000   0.00000
     136.0  -0.94942   0.91685   0.00000
     137.0  -0.94769   0.88373   0.00000
     138.0  -0.94480   0.85070   0.00000
     139.0  -0.94075   0.81779   0.00000
     140.0  -0.93557   0.78503   0.00000
     141.0  -0.92924   0.75248   0.00000
     142.0  -0.92178   0.72017   0.00000
     143.0  -0.91320   0.68814   0.00000
     144.0  -0.90350   0.65643   0.00000
     145.0  -0.89271   0.62508   0.00000
     146.0  -0.88082   0.59412   0.00000
     147.0  -0.86787   0.56360   0.00000
     148.0  -0.85385   0.53355   0.00000
     149.0  -0.83880   0.50400   0.00000
     150.0  -0.82272   0.47500   0.00000
     151.0  -0.80565   0.44658   0.00000
     152.0  -0.78759   0.41877   0.00000
     153.0  -0.76857   0.39160   0.00000
     154.0  -0.74861   0.36512   0.00000
     155.0  -0.72774   0.33935   0.00000
     156.0  -0.70599   0.31433   0.00000
     157.0  -0.68337   0.29007   0.00000
     158.0  -0.65993   0.26663   0.00000
     159.0  -0.63567   0.24401   0.00000
     160.0  -0.61065   0.22226   0.00000
     161.0  -0.58488   0.20139   0.00000
     162.0  -0.55840   0.18143   0.00000
     163.0  -0.53123   0.16241   0.00000
     164.0  -0.50342   0.14435   0.00000
     165.0  -0.47500   0.12728   0.00000
     166.0  -0.44600   0.11120   0.00000
     167.0  -0.41645   0.09615   0.00000
     168.0  -0.38640   0.08213   0.00000
     169.0  -0.35588   0.06918   0.00000
     170.0  -0.32492   0.05729   0.00000
     171.0  -0.29357   0.04650   0.00000
     172.0  -0.26186   0.03680   0.00000
     173.0  -0.22983   0.02822   0.00000
     174.0  -0.19752   0.02076   0.00000
     175.0  -0.16497   0.01443   0.00000
     176.0  -0.13221   0.00925   0.00000
     177.0  -0.09930   0.00520   0.00000
     178.0  -0.06627   0.00231   0.00000
     179.0  -0.03315   0.00058   0.00000
     180.0   0.00000   0.00000   0.00000
! ------------------------------------------------------------------------------
! data for Table  2
! ------------------------------------------------------------------------------
5582449   Re                  ! Reynolds number in millions.
-0.174533       Ctrl                ! Control setting (-10 deg = -0.174533)
False     InclUAdata          ! Is unsteady aerodynamics data included in this table? If TRUE, then include 30 UA coefs below this line.
!----------------------------------------
! Table of aerodynamic coefficients.
361       NumAlf              ! Number of data lines in the following CoeffData table
!    Alpha      Cl      Cd        Cm
!    (deg)      (-)     (-)       (-)
    -180.0   0.00000   0.00000   0.00000
    -179.0   0.03315   0.00058   0.00000
    -178.0   0.06627   0.00231   0.00000
    -177.0   0.09930   0.00520   0.00000
    -176.0   0.13221   0.00925   0.00000
    -175.0   0.16497   0.01443   0.00000
    -174.0   0.19752   0.02076   0.00000
    -173.0   0.22983   0.02822   0.00000
    -172.0   0.26186   0.03680   0.00000
    -171.0   0.29357   0.04650   0.00000
    -170.0   0.32492   0.05729   0.00000
    -169.0   0.35588   0.06918   0.00000
    -168.0   0.38640   0.08213   0.00000
    -167.0   0.41645   0.09615   0.00000
    -166.0   0.44600   0.11120   0.00000
    -165.0   0.47500   0.12728   0.00000
    -164.0   0.50342   0.14435   0.00000
    -163.0   0.53123   0.16241   0.00000
    -162.0   0.55840   0.18143   0.00000
    -161.0   0.58488   0.20139   0.00000
    -160.0   0.61065   0.22226   0.00000
    -159.0   0.63567   0.24401   0.00000
    -158.0   0.65993   0.26663   0.00000
    -157.0   0.68337   0.29007   0.00000
    -156.0   0.70599   0.31433   0.00000
    -155.0   0.72774   0.33935   0.00000
    -154.0   0.74861   0.36512   0.00000
    -153.0   0.76857   0.39160   0.00000
    -152.0   0.78759   0.41877   0.00000
    -151.0   0.80565   0.44658   0.00000
    -150.0   0.82272   0.47500   0.00000
    -149.0   0.83880   0.50400   0.00000
    -148.0   0.85385   0.53355   0.00000
    -147.0   0.86787   0.56360   0.00000
    -146.0   0.88082   0.59412   0.00000
    -145.0   0.89271   0.62508   0.00000
    -144.0   0.90350   0.65643   0.00000
    -143.0   0.91320   0.68814   0.00000
    -142.0   0.92178   0.72017   0.00000
    -141.0   0.92924   0.75248   0.00000
    -140.0   0.93557   0.78503   0.00000
    -139.0   0.94075   0.81779   0.00000
    -138.0   0.94480   0.85070   0.00000
    -137.0   0.94769   0.88373   0.00000
    -136.0   0.94942   0.91685   0.00000
    -135.0   0.95000   0.95000   0.00000
    -134.0   0.94942   0.98315   0.00000
    -133.0   0.94769   1.01627   0.00000
    -132.0   0.94480   1.04930   0.00000
    -131.0   0.94075   1.08221   0.00000
    -130.0   0.93557   1.11497   0.00000
    -129.0   0.92924   1.14752   0.00000
    -128.0   0.92178   1.17983   0.00000
    -127.0   0.91320   1.21186   0.00000
    -126.0   0.90350   1.24357   0.00000
    -125.0   0.89271   1.27492   0.00000
    -124.0   0.88082   1.30588   0.00000
    -123.0   0.86787   1.33640   0.00000
    -122.0   0.85385   1.36645   0.00000
    -121.0   0.83880   1.39600   0.00000
    -120.0   0.82272   1.42500   0.00000
    -119.0   0.80565   1.45342   0.00000
    -118.0   0.78759   1.48123   0.00000
    -117.0   0.76857   1.50840   0.00000
    -116.0   0.74861   1.53488   0.00000
    -115.0   0.72774   1.56065   0.00000
    -114.0   0.70599   1.58567   0.00000
    -113.0   0.68337   1.60993   0.00000
    -112.0   0.65993   1.63337   0.00000
    -111.0   0.63567   1.65599   0.00000
    -110.0   0.61065   1.67774   0.00000
    -109.0   0.58488   1.69861   0.00000
    -108.0   0.55840   1.71857   0.00000
    -107.0   0.53123   1.73759   0.00000
    -106.0   0.50342   1.75565   0.00000
    -105.0   0.47500   1.77272   0.00000
    -104.0   0.44600   1.78880   0.00000
    -103.0   0.41645   1.80385   0.00000
    -102.0   0.38640   1.81787   0.00000
    -101.0   0.35588   1.83082   0.00000
    -100.0   0.32492   1.84271   0.00000
     -99.0   0.29357   1.85350   0.00000
     -98.0   0.26186   1.86320   0.00000
     -97.0   0.22983   1.87178   0.00000
     -96.0   0.19752   1.87924   0.00000
     -95.0   0.16497   1.88557   0.00000
     -94.0   0.13221   1.89075   0.00000
     -93.0   0.09930   1.89480   0.00000
     -92.0   0.06627   1.89769   0.00000
     -91.0   0.03315   1.89942   0.00000
     -90.0  -0.00000   1.90000   0.00000
     -89.0  -0.03315   1.89942   0.00000
     -88.0  -0.06627   1.89769   0.00000
     -87.0  -0.09930   1.89480   0.00000
     -86.0  -0.13221   1.89075   0.00000
     -85.0  -0.16497   1.88557   0.00000
     -84.0  -0.19752   1.87924   0.00000
     -83.0  -0.22983   1.87178   0.00000
     -82.0  -0.26186   1.86320   0.00000
     -81.0  -0.29357   1.85350   0.00000
     -80.0  -0.32492   1.84271   0.00000
     -79.0  -0.35588   1.83082   0.00000
     -78.0  -0.38640   1.81787   0.00000
     -77.0  -0.41645   1.80385   0.00000
     -76.0  -0.44600   1.78880   0.00000
     -75.0  -0.47500   1.77272   0.00000
     -74.0  -0.50342   1.75565   0.00000
     -73.0  -0.53123   1.73759   0.00000
     -72.0  -0.55840   1.71857   0.00000
     -71.0  -0.58488   1.69861   0.00000
     -70.0  -0.61065   1.67774   0.00000
     -69.0  -0.63567   1.65599   0.00000
     -68.0  -0.65993   1.63337   0.00000
     -67.0  -0.68337   1.60993   0.00000
     -66.0  -0.70599   1.58567   0.00000
     -65.0  -0.72774   1.56065   0.00000
     -64.0  -0.74861   1.53488   0.00000
     -63.0  -0.76857   1.50840   0.00000
     -62.0  -0.78759   1.48123   0.00000
     -61.0  -0.80565   1.45342   0.00000
     -60.0  -0.82272   1.42500   0.00000
     -59.0  -0.83880   1.39600   0.00000
     -58.0  -0.85385   1.36645   0.00000
     -57.0  -0.86787   1.33640   0.00000
     -56.0  -0.88082   1.30588   0.00000
     -55.0  -0.89271   1.27492   0.00000
     -54.0  -0.90350   1.24357   0.00000
     -53.0  -0.91320   1.21186   0.00000
     -52.0  -0.92178   1.17983   0.00000
     -51.0  -0.92924   1.14752   0.00000
     -50.0  -0.93557   1.11497   0.00000
     -49.0  -0.94075   1.08221   0.00000
     -48.0  -0.94480   1.04930   0.00000
     -47.0  -0.94769   1.01627   0.00000
     -46.0  -0.94942   0.98315   0.00000
     -45.0  -0.95000   0.95000   0.00000
     -44.0  -0.94942   0.91685   0.00000
     -43.0  -0.94769   0.88373   0.00000
     -42.0  -0.94480   0.85070   0.00000
     -41.0  -0.94075   0.81779   0.00000
     -40.0  -0.93557   0.78503   0.00000
     -39.0  -0.92924   0.75248   0.00000
     -38.0  -0.92178   0.72017   0.00000
     -37.0  -0.91320   0.68814   0.00000
     -36.0  -0.90350   0.65643   0.00000
     -35.0  -0.89271   0.62508   0.00000
     -34.0  -0.88082   0.59412   0.00000
     -33.0  -0.86787   0.56360   0.00000
     -32.0  -0.85385   0.53355   0.00000
     -31.0  -0.83880   0.50400   0.00000
     -30.0  -0.82272   0.47500   0.00000
     -29.0  -0.80565   0.44658   0.00000
     -28.0  -0.78759   0.41877   0.00000
     -27.0  -0.76857   0.39160   0.00000
     -26.0  -0.74861   0.36512   0.00000
     -25.0  -0.72774   0.33935   0.00000
     -24.0  -0.70599   0.31433   0.00000
     -23.0  -0.68337   0.29007   0.00000
     -22.0  -0.65993   0.26663   0.00000
     -21.0  -0.63567   0.24401   0.00000
     -20.0  -0.61065   0.22226   0.00000
     -19.0  -0.58488   0.20139   0.00000
     -18.0  -0.55840   0.18143   0.00000
     -17.0  -0.53123   0.16241   0.00000
     -16.0  -0.50342   0.14435   0.00000
     -15.0  -0.47500   0.12728   0.00000
     -14.0  -0.44600   0.11120   0.00000
     -13.0  -0.41645   0.09615   0.00000
     -12.0  -0.38640   0.08213   0.00000
     -11.0  -0.35588   0.06918   0.00000
     -10.0  -0.32492   0.05729   0.00000
      -9.0  -0.29357   0.04650   0.00000
      -8.0  -0.26186   0.03680   0.00000
      -7.0  -0.40019   0.01779  -0.15848
      -6.0  -0.28075   0.01685  -0.16294
      -5.0  -0.16009   0.01618  -0.16641
      -4.0  -0.03837   0.01541  -0.17037
      -3.0   0.08527   0.01463  -0.17455
      -2.0   0.21005   0.01414  -0.17775
      -1.0   0.33934   0.01345  -0.18196
       0.0   0.46898   0.01282  -0.18600
       1.0   0.59572   0.01235  -0.18882
       2.0   0.72245   0.01188  -0.19164
       3.0   0.84919   0.01141  -0.19446
       4.0   0.97771   0.01090  -0.19746
       5.0   1.10938   0.01004  -0.20122
       6.0   1.24120   0.00897  -0.20473
       7.0   1.36007   0.00933  -0.20523
       8.0   1.47813   0.00972  -0.20572
       9.0   1.59578   0.01010  -0.20633
      10.0   1.71205   0.01060  -0.20691
      11.0   1.82844   0.01108  -0.20768
      12.0   1.94340   0.01159  -0.20840
      13.0   2.05684   0.01216  -0.20908
      14.0   2.16833   0.01285  -0.20966
      15.0   2.27929   0.01351  -0.21035
      16.0   2.38703   0.01432  -0.21080
      17.0   2.49396   0.01510  -0.21129
      18.0   2.59747   0.01607  -0.21154
      19.0   2.69938   0.01707  -0.21173
      20.0   2.79722   0.01826  -0.21154
      21.0   2.89097   0.01958  -0.21105
      22.0   2.97797   0.02113  -0.21003
      23.0   3.05855   0.02302  -0.20825
      24.0   3.12224   0.02556  -0.20478
      25.0   3.14530   0.02962  -0.19655
      26.0   3.13521   0.03725  -0.18931
      27.0   3.05364   0.05207  -0.18295
      28.0   0.78759   0.41877   0.00000
      29.0   0.80565   0.44658   0.00000
      30.0   0.82272   0.47500   0.00000
      31.0   0.83880   0.50400   0.00000
      32.0   0.85385   0.53355   0.00000
      33.0   0.86787   0.56360   0.00000
      34.0   0.88082   0.59412   0.00000
      35.0   0.89271   0.62508   0.00000
      36.0   0.90350   0.65643   0.00000
      37.0   0.91320   0.68814   0.00000
      38.0   0.92178   0.72017   0.00000
      39.0   0.92924   0.75248   0.00000
      40.0   0.93557   0.78503   0.00000
      41.0   0.94075   0.81779   0.00000
      42.0   0.94480   0.85070   0.00000
      43.0   0.94769   0.88373   0.00000
      44.0   0.94942   0.91685   0.00000
      45.0   0.95000   0.95000   0.00000
      46.0   0.94942   0.98315   0.00000
      47.0   0.94769   1.01627   0.00000
      48.0   0.94480   1.04930   0.00000
      49.0   0.94075   1.08221   0.00000
      50.0   0.93557   1.11497   0.00000
      51.0   0.92924   1.14752   0.00000
      52.0   0.92178   1.17983   0.00000
      53.0   0.91320   1.21186   0.00000
      54.0   0.90350   1.24357   0.00000
      55.0   0.89271   1.27492   0.00000
      56.0   0.88082   1.30588   0.00000
      57.0   0.86787   1.33640   0.00000
      58.0   0.85385   1.36645   0.00000
      59.0   0.83880   1.39600   0.00000
      60.0   0.82272   1.42500   0.00000
      61.0   0.80565   1.45342   0.00000
      62.0   0.78759   1.48123   0.00000
      63.0   0.76857   1.50840   0.00000
      64.0   0.74861   1.53488   0.00000
      65.0   0.72774   1.56065   0.00000
      66.0   0.70599   1.58567   0.00000
      67.0   0.68337   1.60993   0.00000
      68.0   0.65993   1.63337   0.00000
      69.0   0.63567   1.65599   0.00000
      70.0   0.61065   1.67774   0.00000
      71.0   0.58488   1.69861   0.00000
      72.0   0.55840   1.71857   0.00000
      73.0   0.53123   1.73759   0.00000
      74.0   0.50342   1.75565   0.00000
      75.0   0.47500   1.77272   0.00000
      76.0   0.44600   1.78880   0.00000
      77.0   0.41645   1.80385   0.00000
      78.0   0.38640   1.81787   0.00000
      79.0   0.35588   1.83082   0.00000
      80.0   0.32492   1.84271   0.00000
      81.0   0.29357   1.85350   0.00000
      82.0   0.26186   1.86320   0.00000
      83.0   0.22983   1.87178   0.00000
      84.0   0.19752   1.87924   0.00000
      85.0   0.16497   1.88557   0.00000
      86.0   0.13221   1.89075   0.00000
      87.0   0.09930   1.89480   0.00000
      88.0   0.06627   1.89769   0.00000
      89.0   0.03315   1.89942   0.00000
      90.0   0.00000   1.90000   0.00000
      91.0  -0.03315   1.89942   0.00000
      92.0  -0.06627   1.89769   0.00000
      93.0  -0.09930   1.89480   0.00000
      94.0  -0.13221   1.89075   0.00000
      95.0  -0.16497   1.88557   0.00000
      96.0  -0.19752   1.87924   0.00000
      97.0  -0.22983   1.87178   0.00000
      98.0  -0.26186   1.86320   0.00000
      99.0  -0.29357   1.85350   0.00000
     100.0  -0.32492   1.84271   0.00000
     101.0  -0.35588   1.83082   0.00000
     102.0  -0.38640   1.81787   0.00000
     103.0  -0.41645   1.80385   0.00000
     104.0  -0.44600   1.78880   0.00000
     105.0  -0.47500   1.77272   0.00000
     106.0  -0.50342   1.75565   0.00000
     107.0  -0.53123   1.73759   0.00000
     108.0  -0.55840   1.71857   0.00000
     109.0  -0.58488   1.69861   0.00000
     110.0  -0.61065   1.67774   0.00000
     111.0  -0.63567   1.65599   0.00000
     112.0  -0.65993   1.63337   0.00000
     113.0  -0.68337   1.60993   0.00000
     114.0  -0.70599   1.58567   0.00000
     115.0  -0.72774   1.56065   0.00000
     116.0  -0.74861   1.53488   0.00000
     117.0  -0.76857   1.50840   0.00000
     118.0  -0.78759   1.48123   0.00000
     119.0  -0.80565   1.45342   0.00000
     120.0  -0.82272   1.42500   0.00000
     121.0  -0.83880   1.39600   0.00000
     122.0  -0.85385   1.36645   0.00000
     123.0  -0.86787   1.33640   0.00000
     124.0  -0.88082   1.30588   0.00000
     125.0  -0.89271   1.27492   0.00000
     126.0  -0.90350   1.24357   0.00000
     127.0  -0.91320   1.21186   0.00000
     128.0  -0.92178   1.17983   0.00000