! ------------ AirfoilInfo 1.00.* Input File ----------------------------------
! Airfoil properties to be used with AeroDyn v15
! Individual tables must include alpha from -180 to 180 degrees
! Multiple tables should contain the same quantity and values for Alpha, and the secondary parameter must be monotonically increasing
! ------------------------------------------------------------------------------
! This is auto generated using GetAirfoilTableFiles.m.
! If manually edited, please document the changes made below.
! ChangeLog: AutoGen on 09-Feb-2018 14:53:23.
! ------------------------------------------------------------------------------
1         InterpOrd           ! Interpolation order to use for quasi-steady table lookup {1=linear; 3=cubic spline; "default"} [default = 3]
1.0       NonDimArea          ! Non-dimensional area of the airfoil (area/chord^2) (Set to 1.0 if unsure or unneeded)
0         NumCoords           ! Number of coordinates in the airfoil shape file. Set to zero if not included.
4         NumTabs             ! Number of airfoil tables in this file. Each table must have lines for Re and Ctrl.
! ------------------------------------------------------------------------------
! data for Table  1
! ------------------------------------------------------------------------------
2985188   Re                  ! Reynolds number in millions.
-0.349066       Ctrl                ! Control setting
False     InclUAdata          ! Is unsteady aerodynamics data included in this table? If TRUE, then include 30 UA coefs below this line.
!----------------------------------------
! Table of aerodynamic coefficients.
361       NumAlf              ! Number of data lines in the following CoeffData table
!    Alpha      Cl      Cd        Cm
!    (deg)      (-)     (-)       (-)
    -180.0   0.00000   0.00000   0.00000
    -179.0   0.03315   0.00058   0.00000
    -178.0   0.06627   0.00231   0.00000
    -177.0   0.09930   0.00520   0.00000
    -176.0   0.13221   0.00925   0.00000
    -175.0   0.16497   0.01443   0.00000
    -174.0   0.19752   0.02076   0.00000
    -173.0   0.22983   0.02822   0.00000
    -172.0   0.26186   0.03680   0.00000
    -171.0   0.29357   0.04650   0.00000
    -170.0   0.32492   0.05729   0.00000
    -169.0   0.35588   0.06918   0.00000
    -168.0   0.38640   0.08213   0.00000
    -167.0   0.41645   0.09615   0.00000
    -166.0   0.44600   0.11120   0.00000
    -165.0   0.47500   0.12728   0.00000
    -164.0   0.50342   0.14435   0.00000
    -163.0   0.53123   0.16241   0.00000
    -162.0   0.55840   0.18143   0.00000
    -161.0   0.58488   0.20139   0.00000
    -160.0   0.61065   0.22226   0.00000
    -159.0   0.63567   0.24401   0.00000
    -158.0   0.65993   0.26663   0.00000
    -157.0   0.68337   0.29007   0.00000
    -156.0   0.70599   0.31433   0.00000
    -155.0   0.72774   0.33935   0.00000
    -154.0   0.74861   0.36512   0.00000
    -153.0   0.76857   0.39160   0.00000
    -152.0   0.78759   0.41877   0.00000
    -151.0   0.80565   0.44658   0.00000
    -150.0   0.82272   0.47500   0.00000
    -149.0   0.83880   0.50400   0.00000
    -148.0   0.85385   0.53355   0.00000
    -147.0   0.86787   0.56360   0.00000
    -146.0   0.88082   0.59412   0.00000
    -145.0   0.89271   0.62508   0.00000
    -144.0   0.90350   0.65643   0.00000
    -143.0   0.91320   0.68814   0.00000
    -142.0   0.92178   0.72017   0.00000
    -141.0   0.92924   0.75248   0.00000
    -140.0   0.93557   0.78503   0.00000
    -139.0   0.94075   0.81779   0.00000
    -138.0   0.94480   0.85070   0.00000
    -137.0   0.94769   0.88373   0.00000
    -136.0   0.94942   0.91685   0.00000
    -135.0   0.95000   0.95000   0.00000
    -134.0   0.94942   0.98315   0.00000
    -133.0   0.94769   1.01627   0.00000
    -132.0   0.94480   1.04930   0.00000
    -131.0   0.94075   1.08221   0.00000
    -130.0   0.93557   1.11497   0.00000
    -129.0   0.92924   1.14752   0.00000
    -128.0   0.92178   1.17983   0.00000
    -127.0   0.91320   1.21186   0.00000
    -126.0   0.90350   1.24357   0.00000
    -125.0   0.89271   1.27492   0.00000
    -124.0   0.88082   1.30588   0.00000
    -123.0   0.86787   1.33640   0.00000
    -122.0   0.85385   1.36645   0.00000
    -121.0   0.83880   1.39600   0.00000
    -120.0   0.82272   1.42500   0.00000
    -119.0   0.80565   1.45342   0.00000
    -118.0   0.78759   1.48123   0.00000
    -117.0   0.76857   1.50840   0.00000
    -116.0   0.74861   1.53488   0.00000
    -115.0   0.72774   1.56065   0.00000
    -114.0   0.70599   1.58567   0.00000
    -113.0   0.68337   1.60993   0.00000
    -112.0   0.65993   1.63337   0.00000
    -111.0   0.63567   1.65599   0.00000
    -110.0   0.61065   1.67774   0.00000
    -109.0   0.58488   1.69861   0.00000
    -108.0   0.55840   1.71857   0.00000
    -107.0   0.53123   1.73759   0.00000
    -106.0   0.50342   1.75565   0.00000
    -105.0   0.47500   1.77272   0.00000
    -104.0   0.44600   1.78880   0.00000
    -103.0   0.41645   1.80385   0.00000
    -102.0   0.38640   1.81787   0.00000
    -101.0   0.35588   1.83082   0.00000
    -100.0   0.32492   1.84271   0.00000
     -99.0   0.29357   1.85350   0.00000
     -98.0   0.26186   1.86320   0.00000
     -97.0   0.22983   1.87178   0.00000
     -96.0   0.19752   1.87924   0.00000
     -95.0   0.16497   1.88557   0.00000
     -94.0   0.13221   1.89075   0.00000
     -93.0   0.09930   1.89480   0.00000
     -92.0   0.06627   1.89769   0.00000
     -91.0   0.03315   1.89942   0.00000
     -90.0  -0.00000   1.90000   0.00000
     -89.0  -0.03315   1.89942   0.00000
     -88.0  -0.06627   1.89769   0.00000
     -87.0  -0.09930   1.89480   0.00000
     -86.0  -0.13221   1.89075   0.00000
     -85.0  -0.16497   1.88557   0.00000
     -84.0  -0.19752   1.87924   0.00000
     -83.0  -0.22983   1.87178   0.00000
     -82.0  -0.26186   1.86320   0.00000
     -81.0  -0.29357   1.85350   0.00000
     -80.0  -0.32492   1.84271   0.00000
     -79.0  -0.35588   1.83082   0.00000
     -78.0  -0.38640   1.81787   0.00000
     -77.0  -0.41645   1.80385   0.00000
     -76.0  -0.44600   1.78880   0.00000
     -75.0  -0.47500   1.77272   0.00000
     -74.0  -0.50342   1.75565   0.00000
     -73.0  -0.53123   1.73759   0.00000
     -72.0  -0.55840   1.71857   0.00000
     -71.0  -0.58488   1.69861   0.00000
     -70.0  -0.61065   1.67774   0.00000
     -69.0  -0.63567   1.65599   0.00000
     -68.0  -0.65993   1.63337   0.00000
     -67.0  -0.68337   1.60993   0.00000
     -66.0  -0.70599   1.58567   0.00000
     -65.0  -0.72774   1.56065   0.00000
     -64.0  -0.74861   1.53488   0.00000
     -63.0  -0.76857   1.50840   0.00000
     -62.0  -0.78759   1.48123   0.00000
     -61.0  -0.80565   1.45342   0.00000
     -60.0  -0.82272   1.42500   0.00000
     -59.0  -0.83880   1.39600   0.00000
     -58.0  -0.85385   1.36645   0.00000
     -57.0  -0.86787   1.33640   0.00000
     -56.0  -0.88082   1.30588   0.00000
     -55.0  -0.89271   1.27492   0.00000
     -54.0  -0.90350   1.24357   0.00000
     -53.0  -0.91320   1.21186   0.00000
     -52.0  -0.92178   1.17983   0.00000
     -51.0  -0.92924   1.14752   0.00000
     -50.0  -0.93557   1.11497   0.00000
     -49.0  -0.94075   1.08221   0.00000
     -48.0  -0.94480   1.04930   0.00000
     -47.0  -0.94769   1.01627   0.00000
     -46.0  -0.94942   0.98315   0.00000
     -45.0  -0.95000   0.95000   0.00000
     -44.0  -0.94942   0.91685   0.00000
     -43.0  -0.94769   0.88373   0.00000
     -42.0  -0.94480   0.85070   0.00000
     -41.0  -0.94075   0.81779   0.00000
     -40.0  -0.93557   0.78503   0.00000
     -39.0  -0.92924   0.75248   0.00000
     -38.0  -0.92178   0.72017   0.00000
     -37.0  -0.91320   0.68814   0.00000
     -36.0  -0.90350   0.65643   0.00000
     -35.0  -0.89271   0.62508   0.00000
     -34.0  -0.88082   0.59412   0.00000
     -33.0  -0.86787   0.56360   0.00000
     -32.0  -0.85385   0.53355   0.00000
     -31.0  -0.83880   0.50400   0.00000
     -30.0  -0.82272   0.47500   0.00000
     -29.0  -0.80565   0.44658   0.00000
     -28.0  -0.78759   0.41877   0.00000
     -27.0  -0.76857   0.39160   0.00000
     -26.0  -0.74861   0.36512   0.00000
     -25.0  -0.72774   0.33935   0.00000
     -24.0  -0.70599   0.31433   0.00000
     -23.0  -0.68337   0.29007   0.00000
     -22.0  -0.65993   0.26663   0.00000
     -21.0  -0.63567   0.24401   0.00000
     -20.0  -0.61065   0.22226   0.00000
     -19.0  -0.58488   0.20139   0.00000
     -18.0  -0.55840   0.18143   0.00000
     -17.0  -0.53123   0.16241   0.00000
     -16.0  -0.50342   0.14435   0.00000
     -15.0  -0.47500   0.12728   0.00000
     -14.0  -0.44600   0.11120   0.00000
     -13.0  -0.41645   0.09615   0.00000
     -12.0  -0.38640   0.08213   0.00000
     -11.0  -0.35588   0.06918   0.00000
     -10.0  -0.32492   0.05729   0.00000
      -9.0  -0.29357   0.04650   0.00000
      -8.0  -0.26186   0.03680   0.00000
      -7.0  -0.22983   0.02822   0.00000
      -6.0  -0.19752   0.02076   0.00000
      -5.0  -0.16497   0.01443   0.00000
      -4.0  -0.75931   0.02072  -0.06247
      -3.0  -0.65603   0.01806  -0.06854
      -2.0  -0.55790   0.01608  -0.07432
      -1.0  -0.46014   0.01469  -0.07943
       0.0  -0.36659   0.01342  -0.08535
       1.0  -0.26063   0.01250  -0.08914
       2.0  -0.14866   0.01171  -0.09215
       3.0  -0.02740   0.01090  -0.09540
       4.0   0.09386   0.01009  -0.09864
       5.0   0.21477   0.00967  -0.10094
       6.0   0.33583   0.00933  -0.10313
       7.0   0.45675   0.00916  -0.10524
       8.0   0.57757   0.00909  -0.10742
       9.0   0.69838   0.00900  -0.10973
      10.0   0.82086   0.00816  -0.11289
      11.0   0.94061   0.00834  -0.11524
      12.0   1.05951   0.00867  -0.11767
      13.0   1.17834   0.00908  -0.12044
      14.0   1.29907   0.00951  -0.12400
      15.0   1.42260   0.01000  -0.12861
      16.0   1.54683   0.01057  -0.13400
      17.0   1.67106   0.01113  -0.13938
      18.0   1.79456   0.01179  -0.14523
      19.0   1.90521   0.01239  -0.14843
      20.0   2.01493   0.01307  -0.15181
      21.0   2.12320   0.01384  -0.15544
      22.0   2.23045   0.01475  -0.15934
      23.0   2.33693   0.01571  -0.16351
      24.0   2.44085   0.01687  -0.16790
      25.0   2.54237   0.01788  -0.17261
      26.0   2.63427   0.02015  -0.17752
      27.0   2.71866   0.02358  -0.18351
      28.0   0.78759   0.41877   0.00000
      29.0   0.80565   0.44658   0.00000
      30.0   0.82272   0.47500   0.00000
      31.0   0.83880   0.50400   0.00000
      32.0   0.85385   0.53355   0.00000
      33.0   0.86787   0.56360   0.00000
      34.0   0.88082   0.59412   0.00000
      35.0   0.89271   0.62508   0.00000
      36.0   0.90350   0.65643   0.00000
      37.0   0.91320   0.68814   0.00000
      38.0   0.92178   0.72017   0.00000
      39.0   0.92924   0.75248   0.00000
      40.0   0.93557   0.78503   0.00000
      41.0   0.94075   0.81779   0.00000
      42.0   0.94480   0.85070   0.00000
      43.0   0.94769   0.88373   0.00000
      44.0   0.94942   0.91685   0.00000
      45.0   0.95000   0.95000   0.00000
      46.0   0.94942   0.98315   0.00000
      47.0   0.94769   1.01627   0.00000
      48.0   0.94480   1.04930   0.00000
      49.0   0.94075   1.08221   0.00000
      50.0   0.93557   1.11497   0.00000
      51.0   0.92924   1.14752   0.00000
      52.0   0.92178   1.17983   0.00000
      53.0   0.91320   1.21186   0.00000
      54.0   0.90350   1.24357   0.00000
      55.0   0.89271   1.27492   0.00000
      56.0   0.88082   1.30588   0.00000
      57.0   0.86787   1.33640   0.00000
      58.0   0.85385   1.36645   0.00000
      59.0   0.83880   1.39600   0.00000
      60.0   0.82272   1.42500   0.00000
      61.0   0.80565   1.45342   0.00000
      62.0   0.78759   1.48123   0.00000
      63.0   0.76857   1.50840   0.00000
      64.0   0.74861   1.53488   0.00000
      65.0   0.72774   1.56065   0.00000
      66.0   0.70599   1.58567   0.00000
      67.0   0.68337   1.60993   0.00000
      68.0   0.65993   1.63337   0.00000
      69.0   0.63567   1.65599   0.00000
      70.0   0.61065   1.67774   0.00000
      71.0   0.58488   1.69861   0.00000
      72.0   0.55840   1.71857   0.00000
      73.0   0.53123   1.73759   0.00000
      74.0   0.50342   1.75565   0.00000
      75.0   0.47500   1.77272   0.00000
      76.0   0.44600   1.78880   0.00000
      77.0   0.41645   1.80385   0.00000
      78.0   0.38640   1.81787   0.00000
      79.0   0.35588   1.83082   0.00000
      80.0   0.32492   1.84271   0.00000
      81.0   0.29357   1.85350   0.00000
      82.0   0.26186   1.86320   0.00000
      83.0   0.22983   1.87178   0.00000
      84.0   0.19752   1.87924   0.00000
      85.0   0.16497   1.88557   0.00000
      86.0   0.13221   1.89075   0.00000
      87.0   0.09930   1.89480   0.00000
      88.0   0.06627   1.89769   0.00000
      89.0   0.03315   1.89942   0.00000
      90.0   0.00000   1.90000   0.00000
      91.0  -0.03315   1.89942   0.00000
      92.0  -0.06627   1.89769   0.00000
      93.0  -0.09930   1.89480   0.00000
      94.0  -0.13221   1.89075   0.00000
      95.0  -0.16497   1.88557   0.00000
      96.0  -0.19752   1.87924   0.00000
      97.0  -0.22983   1.87178   0.00000
      98.0  -0.26186   1.86320   0.00000
      99.0  -0.29357   1.85350   0.00000
     100.0  -0.32492   1.84271   0.00000
     101.0  -0.35588   1.83082   0.00000
     102.0  -0.38640   1.81787   0.00000
     103.0  -0.41645   1.80385   0.00000
     104.0  -0.44600   1.78880   0.00000
     105.0  -0.47500   1.77272   0.00000
     106.0  -0.50342   1.75565   0.00000
     107.0  -0.53123   1.73759   0.00000
     108.0  -0.55840   1.71857   0.00000
     109.0  -0.58488   1.69861   0.00000
     110.0  -0.61065   1.67774   0.00000
     111.0  -0.63567   1.65599   0.00000
     112.0  -0.65993   1.63337   0.00000
     113.0  -0.68337   1.60993   0.00000
     114.0  -0.70599   1.58567   0.00000
     115.0  -0.72774   1.56065   0.00000
     116.0  -0.74861   1.53488   0.00000
     117.0  -0.76857   1.50840   0.00000
     118.0  -0.78759   1.48123   0.00000
     119.0  -0.80565   1.45342   0.00000
     120.0  -0.82272   1.42500   0.00000
     121.0  -0.83880   1.39600   0.00000
     122.0  -0.85385   1.36645   0.00000
     123.0  -0.86787   1.33640   0.00000
     124.0  -0.88082   1.30588   0.00000
     125.0  -0.89271   1.27492   0.00000
     126.0  -0.90350   1.24357   0.00000
     127.0  -0.91320   1.21186   0.00000
     128.0  -0.92178   1.17983   0.00000
     129.0  -0.92924   1.14752   0.00000
     130.0  -0.93557   1.11497   0.00000
     131.0  -0.94075   1.08221   0.00000
     132.0  -0.94480   1.04930   0.00000
     133.0  -0.94769   1.01627   0.00000
     134.0  -0.94942   0.98315   0.00000
     135.0  -0.95000   0.95000   0.00000
     136.0  -0.94942   0.91685   0.00000
     137.0  -0.94769   0.88373   0.00000
     138.0  -0.94480   0.85070   0.00000
     139.0  -0.94075   0.81779   0.00000
     140.0  -0.93557   0.78503   0.00000
     141.0  -0.92924   0.75248   0.00000
     142.0  -0.92178   0.72017   0.00000
     143.0  -0.91320   0.68814   0.00000
     144.0  -0.90350   0.65643   0.00000
     145.0  -0.89271   0.62508   0.00000
     146.0  -0.88082   0.59412   0.00000
     147.0  -0.86787   0.56360   0.00000
     148.0  -0.85385   0.53355   0.00000
     149.0  -0.83880   0.50400   0.00000
     150.0  -0.82272   0.47500   0.00000
     151.0  -0.80565   0.44658   0.00000
     152.0  -0.78759   0.41877   0.00000
     153.0  -0.76857   0.39160   0.00000
     154.0  -0.74861   0.36512   0.00000
     155.0  -0.72774   0.33935   0.00000
     156.0  -0.70599   0.31433   0.00000
     157.0  -0.68337   0.29007   0.00000
     158.0  -0.65993   0.26663   0.00000
     159.0  -0.63567   0.24401   0.00000
     160.0  -0.61065   0.22226   0.00000
     161.0  -0.58488   0.20139   0.00000
     162.0  -0.55840   0.18143   0.00000
     163.0  -0.53123   0.16241   0.00000
     164.0  -0.50342   0.14435   0.00000
     165.0  -0.47500   0.12728   0.00000
     166.0  -0.44600   0.11120   0.00000
     167.0  -0.41645   0.09615   0.00000
     168.0  -0.38640   0.08213   0.00000
     169.0  -0.35588   0.06918   0.00000
     170.0  -0.32492   0.05729   0.00000
     171.0  -0.29357   0.04650   0.00000
     172.0  -0.26186   0.03680   0.00000
     173.0  -0.22983   0.02822   0.00000
     174.0  -0.19752   0.02076   0.00000
     175.0  -0.16497   0.01443   0.00000
     176.0  -0.13221   0.00925   0.00000
     177.0  -0.09930   0.00520   0.00000
     178.0  -0.06627   0.00231   0.00000
     179.0  -0.03315   0.00058   0.00000
     180.0   0.00000   0.00000   0.00000
! ------------------------------------------------------------------------------
! data for Table  2
! ------------------------------------------------------------------------------
2985188   Re                  ! Reynolds number in millions.
-0.174533       Ctrl                ! Control setting
False     InclUAdata          ! Is unsteady aerodynamics data included in this table? If TRUE, then include 30 UA coefs below this line.
!----------------------------------------
! Table of aerodynamic coefficients.
361       NumAlf              ! Number of data lines in the following CoeffData table
!    Alpha      Cl      Cd        Cm
!    (deg)      (-)     (-)       (-)
    -180.0   0.00000   0.00000   0.00000
    -179.0   0.03315   0.00058   0.00000
    -178.0   0.06627   0.00231   0.00000
    -177.0   0.09930   0.00520   0.00000
    -176.0   0.13221   0.00925   0.00000
    -175.0   0.16497   0.01443   0.00000
    -174.0   0.19752   0.02076   0.00000
    -173.0   0.22983   0.02822   0.00000
    -172.0   0.26186   0.03680   0.00000
    -171.0   0.29357   0.04650   0.00000
    -170.0   0.32492   0.05729   0.00000
    -169.0   0.35588   0.06918   0.00000
    -168.0   0.38640   0.08213   0.00000
    -167.0   0.41645   0.09615   0.00000
    -166.0   0.44600   0.11120   0.00000
    -165.0   0.47500   0.12728   0.00000
    -164.0   0.50342   0.14435   0.00000
    -163.0   0.53123   0.16241   0.00000
    -162.0   0.55840   0.18143   0.00000
    -161.0   0.58488   0.20139   0.00000
    -160.0   0.61065   0.22226   0.00000
    -159.0   0.63567   0.24401   0.00000
    -158.0   0.65993   0.26663   0.00000
    -157.0   0.68337   0.29007   0.00000
    -156.0   0.70599   0.31433   0.00000
    -155.0   0.72774   0.33935   0.00000
    -154.0   0.74861   0.36512   0.00000
    -153.0   0.76857   0.39160   0.00000
    -152.0   0.78759   0.41877   0.00000
    -151.0   0.80565   0.44658   0.00000
    -150.0   0.82272   0.47500   0.00000
    -149.0   0.83880   0.50400   0.00000
    -148.0   0.85385   0.53355   0.00000
    -147.0   0.86787   0.56360   0.00000
    -146.0   0.88082   0.59412   0.00000
    -145.0   0.89271   0.62508   0.00000
    -144.0   0.90350   0.65643   0.00000
    -143.0   0.91320   0.68814   0.00000
    -142.0   0.92178   0.72017   0.00000
    -141.0   0.92924   0.75248   0.00000
    -140.0   0.93557   0.78503   0.00000
    -139.0   0.94075   0.81779   0.00000
    -138.0   0.94480   0.85070   0.00000
    -137.0   0.94769   0.88373   0.00000
    -136.0   0.94942   0.91685   0.00000
    -135.0   0.95000   0.95000   0.00000
    -134.0   0.94942   0.98315   0.00000
    -133.0   0.94769   1.01627   0.00000
    -132.0   0.94480   1.04930   0.00000
    -131.0   0.94075   1.08221   0.00000
    -130.0   0.93557   1.11497   0.00000
    -129.0   0.92924   1.14752   0.00000
    -128.0   0.92178   1.17983   0.00000
    -127.0   0.91320   1.21186   0.00000
    -126.0   0.90350   1.24357   0.00000
    -125.0   0.89271   1.27492   0.00000
    -124.0   0.88082   1.30588   0.00000
    -123.0   0.86787   1.33640   0.00000
    -122.0   0.85385   1.36645   0.00000
    -121.0   0.83880   1.39600   0.00000
    -120.0   0.82272   1.42500   0.00000
    -119.0   0.80565   1.45342   0.00000
    -118.0   0.78759   1.48123   0.00000
    -117.0   0.76857   1.50840   0.00000
    -116.0   0.74861   1.53488   0.00000
    -115.0   0.72774   1.56065   0.00000
    -114.0   0.70599   1.58567   0.00000
    -113.0   0.68337   1.60993   0.00000
    -112.0   0.65993   1.63337   0.00000
    -111.0   0.63567   1.65599   0.00000
    -110.0   0.61065   1.67774   0.00000
    -109.0   0.58488   1.69861   0.00000
    -108.0   0.55840   1.71857   0.00000
    -107.0   0.53123   1.73759   0.00000
    -106.0   0.50342   1.75565   0.00000
    -105.0   0.47500   1.77272   0.00000
    -104.0   0.44600   1.78880   0.00000
    -103.0   0.41645   1.80385   0.00000
    -102.0   0.38640   1.81787   0.00000
    -101.0   0.35588   1.83082   0.00000
    -100.0   0.32492   1.84271   0.00000
     -99.0   0.29357   1.85350   0.00000
     -98.0   0.26186   1.86320   0.00000
     -97.0   0.22983   1.87178   0.00000
     -96.0   0.19752   1.87924   0.00000
     -95.0   0.16497   1.88557   0.00000
     -94.0   0.13221   1.89075   0.00000
     -93.0   0.09930   1.89480   0.00000
     -92.0   0.06627   1.89769   0.00000
     -91.0   0.03315   1.89942   0.00000
     -90.0  -0.00000   1.90000   0.00000
     -89.0  -0.03315   1.89942   0.00000
     -88.0  -0.06627   1.89769   0.00000
     -87.0  -0.09930   1.89480   0.00000
     -86.0  -0.13221   1.89075   0.00000
     -85.0  -0.16497   1.88557   0.00000
     -84.0  -0.19752   1.87924   0.00000
     -83.0  -0.22983   1.87178   0.00000
     -82.0  -0.26186   1.86320   0.00000
     -81.0  -0.29357   1.85350   0.00000
     -80.0  -0.32492   1.84271   0.00000
     -79.0  -0.35588   1.83082   0.00000
     -78.0  -0.38640   1.81787   0.00000
     -77.0  -0.41645   1.80385   0.00000
     -76.0  -0.44600   1.78880   0.00000
     -75.0  -0.47500   1.77272   0.00000
     -74.0  -0.50342   1.75565   0.00000
     -73.0  -0.53123   1.73759   0.00000
     -72.0  -0.55840   1.71857   0.00000
     -71.0  -0.58488   1.69861   0.00000
     -70.0  -0.61065   1.67774   0.00000
     -69.0  -0.63567   1.65599   0.00000
     -68.0  -0.65993   1.63337   0.00000
     -67.0  -0.68337   1.60993   0.00000
     -66.0  -0.70599   1.58567   0.00000
     -65.0  -0.72774   1.56065   0.00000
     -64.0  -0.74861   1.53488   0.00000
     -63.0  -0.76857   1.50840   0.00000
     -62.0  -0.78759   1.48123   0.00000
     -61.0  -0.80565   1.45342   0.00000
     -60.0  -0.82272   1.42500   0.00000
     -59.0  -0.83880   1.39600   0.00000
     -58.0  -0.85385   1.36645   0.00000
     -57.0  -0.86787   1.33640   0.00000
     -56.0  -0.88082   1.30588   0.00000
     -55.0  -0.89271   1.27492   0.00000
     -54.0  -0.90350   1.24357   0.00000
     -53.0  -0.91320   1.21186   0.00000
     -52.0  -0.92178   1.17983   0.00000
     -51.0  -0.92924   1.14752   0.00000
     -50.0  -0.93557   1.11497   0.00000
     -49.0  -0.94075   1.08221   0.00000
     -48.0  -0.94480   1.04930   0.00000
     -47.0  -0.94769   1.01627   0.00000
     -46.0  -0.94942   0.98315   0.00000
     -45.0  -0.95000   0.95000   0.00000
     -44.0  -0.94942   0.91685   0.00000
     -43.0  -0.94769   0.88373   0.00000
     -42.0  -0.94480   0.85070   0.00000
     -41.0  -0.94075   0.81779   0.00000
     -40.0  -0.93557   0.78503   0.00000
     -39.0  -0.92924   0.75248   0.00000
     -38.0  -0.92178   0.72017   0.00000
     -37.0  -0.91320   0.68814   0.00000
     -36.0  -0.90350   0.65643   0.00000
     -35.0  -0.89271   0.62508   0.00000
     -34.0  -0.88082   0.59412   0.00000
     -33.0  -0.86787   0.56360   0.00000
     -32.0  -0.85385   0.53355   0.00000
     -31.0  -0.83880   0.50400   0.00000
     -30.0  -0.82272   0.47500   0.00000
     -29.0  -0.80565   0.44658   0.00000
     -28.0  -0.78759   0.41877   0.00000
     -27.0  -0.76857   0.39160   0.00000
     -26.0  -0.74861   0.36512   0.00000
     -25.0  -0.72774   0.33935   0.00000
     -24.0  -0.70599   0.31433   0.00000
     -23.0  -0.68337   0.29007   0.00000
     -22.0  -0.65993   0.26663   0.00000
     -21.0  -0.63567   0.24401   0.00000
     -20.0  -0.61065   0.22226   0.00000
     -19.0  -0.58488   0.20139   0.00000
     -18.0  -0.55840   0.18143   0.00000
     -17.0  -0.53123   0.16241   0.00000
     -16.0  -0.50342   0.14435   0.00000
     -15.0  -0.47500   0.12728   0.00000
     -14.0  -0.44600   0.11120   0.00000
     -13.0  -0.41645   0.09615   0.00000
     -12.0  -0.38640   0.08213   0.00000
     -11.0  -0.35588   0.06918   0.00000
     -10.0  -0.82465   0.02033  -0.17481
      -9.0  -0.71599   0.01799  -0.18081
      -8.0  -0.60496   0.01621  -0.18543
      -7.0  -0.49143   0.01477  -0.18918
      -6.0  -0.37517   0.01375  -0.19197
      -5.0  -0.25656   0.01296  -0.19438
      -4.0  -0.13568   0.01226  -0.19670
      -3.0  -0.01214   0.01173  -0.19907
      -2.0   0.11298   0.01126  -0.20158
      -1.0   0.24041   0.01092  -0.20433
       0.0   0.37714   0.01012  -0.20900
       1.0   0.50624   0.00994  -0.21213
       2.0   0.63595   0.00983  -0.21550
       3.0   0.76477   0.00982  -0.21881
       4.0   0.88538   0.00986  -0.22039
       5.0   1.00360   0.00996  -0.22159
       6.0   1.12142   0.01003  -0.22291
       7.0   1.24120   0.00959  -0.22505
       8.0   1.35881   0.00985  -0.22673
       9.0   1.47541   0.01030  -0.22843
      10.0   1.59149   0.01076  -0.23032
      11.0   1.70635   0.01128  -0.23254
      12.0   1.82122   0.01180  -0.23476
      13.0   1.93608   0.01232  -0.23698
      14.0   2.04856   0.01292  -0.23931
      15.0   2.16046   0.01358  -0.24188
      16.0   2.27074   0.01426  -0.24440
      17.0   2.38017   0.01496  -0.24703
      18.0   2.48730   0.01572  -0.24965
      19.0   2.59258   0.01665  -0.25220
      20.0   2.69635   0.01751  -0.25485
      21.0   2.79892   0.01850  -0.25755
      22.0   2.89880   0.01961  -0.26018
      23.0   2.99334   0.02071  -0.26262
      24.0   3.08098   0.02295  -0.26453
      25.0   3.15934   0.02562  -0.26587
      26.0   3.21432   0.03075  -0.26537
      27.0   3.20535   0.04197  -0.26314
      28.0   0.78759   0.41877   0.00000
      29.0   0.80565   0.44658   0.00000
      30.0   0.82272   0.47500   0.00000
      31.0   0.83880   0.50400   0.00000
      32.0   0.85385   0.53355   0.00000
      33.0   0.86787   0.56360   0.00000
      34.0   0.88082   0.59412   0.00000
      35.0   0.89271   0.62508   0.00000
      36.0   0.90350   0.65643   0.00000
      37.0   0.91320   0.68814   0.00000
      38.0   0.92178   0.72017   0.00000
      39.0   0.92924   0.75248   0.00000
      40.0   0.93557   0.78503   0.00000
      41.0   0.94075   0.81779   0.00000
      42.0   0.94480   0.85070   0.00000
      43.0   0.94769   0.88373   0.00000
      44.0   0.94942   0.91685   0.00000
      45.0   0.95000   0.95000   0.00000
      46.0   0.94942   0.98315   0.00000
      47.0   0.94769   1.01627   0.00000
      48.0   0.94480   1.04930   0.00000
      49.0   0.94075   1.08221   0.00000
      50.0   0.93557   1.11497   0.00000
      51.0   0.92924   1.14752   0.00000
      52.0   0.92178   1.17983   0.00000
      53.0   0.91320   1.21186   0.00000
      54.0   0.90350   1.24357   0.00000
      55.0   0.89271   1.27492   0.00000
      56.0   0.88082   1.30588   0.00000
      57.0   0.86787   1.33640   0.00000
      58.0   0.85385   1.36645   0.00000
      59.0   0.83880   1.39600   0.00000
      60.0   0.82272   1.42500   0.00000
      61.0   0.80565   1.45342   0.00000
      62.0   0.78759   1.48123   0.00000
      63.0   0.76857   1.50840   0.00000
      64.0   0.74861   1.53488   0.00000
      65.0   0.72774   1.56065   0.00000
      66.0   0.70599   1.58567   0.00000
      67.0   0.68337   1.60993   0.00000
      68.0   0.65993   1.63337   0.00000
      69.0   0.63567   1.65599   0.00000
      70.0   0.61065   1.67774   0.00000
      71.0   0.58488   1.69861   0.00000
      72.0   0.55840   1.71857   0.00000
      73.0   0.53123   1.73759   0.00000
      74.0   0.50342   1.75565   0.00000
      75.0   0.47500   1.77272   0.00000
      76.0   0.44600   1.78880   0.00000
      77.0   0.41645   1.80385   0.00000
      78.0   0.38640   1.81787   0.00000
      79.0   0.35588   1.83082   0.00000
      80.0   0.32492   1.84271   0.00000
      81.0   0.29357   1.85350   0.00000
      82.0   0.26186   1.86320   0.00000
      83.0   0.22983   1.87178   0.00000
      84.0   0.19752   1.87924   0.00000
      85.0   0.16497   1.88557   0.00000
      86.0   0.13221   1.89075   0.00000
      87.0   0.09930   1.89480   0.00000
      88.0   0.06627   1.89769   0.00000
      89.0   0.03315   1.89942   0.00000
      90.0   0.00000   1.90000   0.00000
      91.0  -0.03315   1.89942   0.00000
      92.0  -0.06627   1.89769   0.00000
      93.0  -0.09930   1.89480   0.00000
      94.0  -0.13221   1.89075   0.00000
      95.0  -0.16497   1.88557   0.00000
      96.0  -0.19752   1.87924   0.00000
      97.0  -0.22983   1.87178   0.00000
      98.0  -0.26186   1.86320   0.00000
      99.0  -0.29357   1.85350   0.00000
     100.0  -0.32492   1.84271   0.00000
     101.0  -0.35588   1.83082   0.00000
     102.0  -0.38640   1.81787   0.00000
     103.0  -0.41645   1.80385   0.00000
     104.0  -0.44600   1.78880   0.00000
     105.0  -0.47500   1.77272   0.00000
     106.0  -0.50342   1.75565   0.00000
     107.0  -0.53123   1.73759   0.00000
     108.0  -0.55840   1.71857   0.00000
     109.0  -0.58488   1.69861   0.00000
     110.0  -0.61065   1.67774   0.00000
     111.0  -0.63567   1.65599   0.00000
     112.0  -0.65993   1.63337   0.00000
     113.0  -0.68337   1.60993   0.00000
     114.0  -0.70599   1.58567   0.00000
     115.0  -0.72774   1.56065   0.00000
     116.0  -0.74861   1.53488   0.00000
     117.0  -0.76857   1.50840   0.00000
     118.0  -0.78759   1.48123   0.00000
     119.0  -0.80565   1.45342   0.00000
     120.0  -0.82272   1.42500   0.00000
     121.0  -0.83880   1.39600   0.00000
     122.0  -0.85385   1.36645   0.00000
     123.0  -0.86787   1.33640   0.00000
     124.0  -0.88082   1.30588   0.00000
     125.0  -0.89271   1.27492   0.00000
     126.0  -0.90350   1.24357   0.00000
     127.0  -0.91320   1.21186   0.00000
     128.0  -0.92178   1.17983   0.00000
     129.0  -0.92924   1.14752   0.00000