! ------------ AirfoilInfo 1.00.* Input File ----------------------------------
! Airfoil properties to be used with AeroDyn v15
! Individual tables must include alpha from -180 to 180 degrees
! Multiple tables should contain the same quantity and values for Alpha, and the secondary parameter must be monotonically increasing
! ------------------------------------------------------------------------------
! This is auto generated using GetAirfoilTableFiles.m.
! If manually edited, please document the changes made below.
! ChangeLog: AutoGen on 09-Feb-2018 14:53:23.
! ------------------------------------------------------------------------------
1         InterpOrd           ! Interpolation order to use for quasi-steady table lookup {1=linear; 3=cubic spline; "default"} [default = 3]
1.0       NonDimArea          ! Non-dimensional area of the airfoil (area/chord^2) (Set to 1.0 if unsure or unneeded)
0         NumCoords           ! Number of coordinates in the airfoil shape file. Set to zero if not included.
1         NumTabs             ! Number of airfoil tables in this file. Each table must have lines for Re and Ctrl.
! ------------------------------------------------------------------------------
! data for Table  1
! ------------------------------------------------------------------------------
3394867   Re                  ! Reynolds number in millions.
0         Ctrl                ! Control setting
False     InclUAdata          ! Is unsteady aerodynamics data included in this table? If TRUE, then include 30 UA coefs below this line.
!----------------------------------------
! Table of aerodynamic coefficients.
361       NumAlf              ! Number of data lines in the following CoeffData table
!    Alpha      Cl      Cd        Cm
!    (deg)      (-)     (-)       (-)
    -180.0   0.00000   0.00000   0.00000
    -179.0  -0.03315   0.00058   0.00000
    -178.0  -0.06627   0.00231   0.00000
    -177.0  -0.09930   0.00520   0.00000
    -176.0  -0.13221   0.00925   0.00000
    -175.0  -0.16497   0.01443   0.00000
    -174.0  -0.19752   0.02076   0.00000
    -173.0  -0.22983   0.02822   0.00000
    -172.0  -0.26186   0.03680   0.00000
    -171.0  -0.29357   0.04650   0.00000
    -170.0  -0.32492   0.05729   0.00000
    -169.0  -0.35588   0.06918   0.00000
    -168.0  -0.38640   0.08213   0.00000
    -167.0  -0.41645   0.09615   0.00000
    -166.0  -0.44600   0.11120   0.00000
    -165.0  -0.47500   0.12728   0.00000
    -164.0  -0.50342   0.14435   0.00000
    -163.0  -0.53123   0.16241   0.00000
    -162.0  -0.55840   0.18143   0.00000
    -161.0  -0.58488   0.20139   0.00000
    -160.0  -0.61065   0.22226   0.00000
    -159.0  -0.63567   0.24401   0.00000
    -158.0  -0.65993   0.26663   0.00000
    -157.0  -0.68337   0.29007   0.00000
    -156.0  -0.70599   0.31433   0.00000
    -155.0  -0.72774   0.33935   0.00000
    -154.0  -0.74861   0.36512   0.00000
    -153.0  -0.76857   0.39160   0.00000
    -152.0  -0.78759   0.41877   0.00000
    -151.0  -0.80565   0.44658   0.00000
    -150.0  -0.82272   0.47500   0.00000
    -149.0  -0.83880   0.50400   0.00000
    -148.0  -0.85385   0.53355   0.00000
    -147.0  -0.86787   0.56360   0.00000
    -146.0  -0.88082   0.59412   0.00000
    -145.0  -0.89271   0.62508   0.00000
    -144.0  -0.90350   0.65643   0.00000
    -143.0  -0.91320   0.68814   0.00000
    -142.0  -0.92178   0.72017   0.00000
    -141.0  -0.92924   0.75248   0.00000
    -140.0  -0.93557   0.78503   0.00000
    -139.0  -0.94075   0.81779   0.00000
    -138.0  -0.94480   0.85070   0.00000
    -137.0  -0.94769   0.88373   0.00000
    -136.0  -0.94942   0.91685   0.00000
    -135.0  -0.95000   0.95000   0.00000
    -134.0  -0.94942   0.98315   0.00000
    -133.0  -0.94769   1.01627   0.00000
    -132.0  -0.94480   1.04930   0.00000
    -131.0  -0.94075   1.08221   0.00000
    -130.0  -0.93557   1.11497   0.00000
    -129.0  -0.92924   1.14752   0.00000
    -128.0  -0.92178   1.17983   0.00000
    -127.0  -0.91320   1.21186   0.00000
    -126.0  -0.90350   1.24357   0.00000
    -125.0  -0.89271   1.27492   0.00000
    -124.0  -0.88082   1.30588   0.00000
    -123.0  -0.86787   1.33640   0.00000
    -122.0  -0.85385   1.36645   0.00000
    -121.0  -0.83880   1.39600   0.00000
    -120.0  -0.82272   1.42500   0.00000
    -119.0  -0.80565   1.45342   0.00000
    -118.0  -0.78759   1.48123   0.00000
    -117.0  -0.76857   1.50840   0.00000
    -116.0  -0.74861   1.53488   0.00000
    -115.0  -0.72774   1.56065   0.00000
    -114.0  -0.70599   1.58567   0.00000
    -113.0  -0.68337   1.60993   0.00000
    -112.0  -0.65993   1.63337   0.00000
    -111.0  -0.63567   1.65599   0.00000
    -110.0  -0.61065   1.67774   0.00000
    -109.0  -0.58488   1.69861   0.00000
    -108.0  -0.55840   1.71857   0.00000
    -107.0  -0.53123   1.73759   0.00000
    -106.0  -0.50342   1.75565   0.00000
    -105.0  -0.47500   1.77272   0.00000
    -104.0  -0.44600   1.78880   0.00000
    -103.0  -0.41645   1.80385   0.00000
    -102.0  -0.38640   1.81787   0.00000
    -101.0  -0.35588   1.83082   0.00000
    -100.0  -0.32492   1.84271   0.00000
     -99.0  -0.29357   1.85350   0.00000
     -98.0  -0.26186   1.86320   0.00000
     -97.0  -0.22983   1.87178   0.00000
     -96.0  -0.19752   1.87924   0.00000
     -95.0  -0.16497   1.88557   0.00000
     -94.0  -0.13221   1.89075   0.00000
     -93.0  -0.09930   1.89480   0.00000
     -92.0  -0.06627   1.89769   0.00000
     -91.0  -0.03315   1.89942   0.00000
     -90.0   0.00000   1.90000   0.00000
     -89.0   0.03315   1.89942   0.00000
     -88.0   0.06627   1.89769   0.00000
     -87.0   0.09930   1.89480   0.00000
     -86.0   0.13221   1.89075   0.00000
     -85.0   0.16497   1.88557   0.00000
     -84.0   0.19752   1.87924   0.00000
     -83.0   0.22983   1.87178   0.00000
     -82.0   0.26186   1.86320   0.00000
     -81.0   0.29357   1.85350   0.00000
     -80.0   0.32492   1.84271   0.00000
     -79.0   0.35588   1.83082   0.00000
     -78.0   0.38640   1.81787   0.00000
     -77.0   0.41645   1.80385   0.00000
     -76.0   0.44600   1.78880   0.00000
     -75.0   0.47500   1.77272   0.00000
     -74.0   0.50342   1.75565   0.00000
     -73.0   0.53123   1.73759   0.00000
     -72.0   0.55840   1.71857   0.00000
     -71.0   0.58488   1.69861   0.00000
     -70.0   0.61065   1.67774   0.00000
     -69.0   0.63567   1.65599   0.00000
     -68.0   0.65993   1.63337   0.00000
     -67.0   0.68337   1.60993   0.00000
     -66.0   0.70599   1.58567   0.00000
     -65.0   0.72774   1.56065   0.00000
     -64.0   0.74861   1.53488   0.00000
     -63.0   0.76857   1.50840   0.00000
     -62.0   0.78759   1.48123   0.00000
     -61.0   0.80565   1.45342   0.00000
     -60.0   0.82272   1.42500   0.00000
     -59.0   0.83880   1.39600   0.00000
     -58.0   0.85385   1.36645   0.00000
     -57.0   0.86787   1.33640   0.00000
     -56.0   0.88082   1.30588   0.00000
     -55.0   0.89271   1.27492   0.00000
     -54.0   0.90350   1.24357   0.00000
     -53.0   0.91320   1.21186   0.00000
     -52.0   0.92178   1.17983   0.00000
     -51.0   0.92924   1.14752   0.00000
     -50.0   0.93557   1.11497   0.00000
     -49.0   0.94075   1.08221   0.00000
     -48.0   0.94480   1.04930   0.00000
     -47.0   0.94769   1.01627   0.00000
     -46.0   0.94942   0.98315   0.00000
     -45.0   0.95000   0.95000   0.00000
     -44.0   0.94942   0.91685   0.00000
     -43.0   0.94769   0.88373   0.00000
     -42.0   0.94480   0.85070   0.00000
     -41.0   0.94075   0.81779   0.00000
     -40.0   0.93557   0.78503   0.00000
     -39.0   0.92924   0.75248   0.00000
     -38.0   0.92178   0.72017   0.00000
     -37.0   0.91320   0.68814   0.00000
     -36.0   0.90350   0.65643   0.00000
     -35.0   0.89271   0.62508   0.00000
     -34.0   0.88082   0.59412   0.00000
     -33.0   0.86787   0.56360   0.00000
     -32.0   0.85385   0.53355   0.00000
     -31.0   0.83880   0.50400   0.00000
     -30.0   0.82272   0.47500   0.00000
     -29.0   0.80565   0.44658   0.00000
     -28.0   0.78759   0.41877   0.00000
     -27.0   0.76857   0.39160   0.00000
     -26.0   0.74861   0.36512   0.00000
     -25.0   0.72774   0.33935   0.00000
     -24.0   1.45680   0.53193  -0.29744
     -23.0   1.67344   0.32953  -0.19170
     -22.0   1.89009   0.12714  -0.08596
     -21.0   1.95586   0.09757  -0.07071
     -20.0   2.02162   0.06801  -0.05546
     -19.0   2.01330   0.05544  -0.05221
     -18.0   2.00497   0.04286  -0.04895
     -17.0   1.99084   0.03676  -0.05412
     -16.0   1.97671   0.03066  -0.05930
     -15.0   1.92278   0.02683  -0.06386
     -14.0   1.86885   0.02300  -0.06842
     -13.0   1.74472   0.02372  -0.06666
     -12.0   1.62060   0.02445  -0.06490
     -11.0   1.54132   0.02198  -0.06822
     -10.0   1.46203   0.01952  -0.07154
      -9.0   1.36875   0.01785  -0.07394
      -8.0   1.27547   0.01619  -0.07633
      -7.0   1.17446   0.01498  -0.07808
      -6.0   1.07344   0.01377  -0.07984
      -5.0   0.96707   0.01293  -0.08110
      -4.0   0.86069   0.01210  -0.08236
      -3.0   0.74990   0.01152  -0.08308
      -2.0   0.63910   0.01095  -0.08379
      -1.0   0.52552   0.01057  -0.08411
       0.0   0.41195   0.01019  -0.08443
       1.0   0.29613   0.01007  -0.08452
       2.0   0.18030   0.00995  -0.08461
       3.0   0.06408   0.01005  -0.08459
       4.0  -0.05215   0.01015  -0.08458
       5.0  -0.16807   0.01054  -0.08452
       6.0  -0.28399   0.01094  -0.08446
       7.0  -0.39805   0.01168  -0.08450
       8.0  -0.51210   0.01242  -0.08453
       9.0  -0.62224   0.01365  -0.08475
      10.0  -0.73237   0.01487  -0.08497
      11.0  -0.83460   0.01682  -0.08536
      12.0  -0.93684   0.01878  -0.08574
      13.0  -1.02085   0.02218  -0.08584
      14.0  -1.10486   0.02558  -0.08594
      15.0  -1.08147   0.03797  -0.07860
      16.0  -1.05808   0.05035  -0.07127
      17.0  -0.88875   0.17642   0.01298
      18.0  -0.71942   0.30249   0.09723
      19.0  -0.79179   0.34602   0.11526
      20.0  -0.86415   0.38955   0.13329
      21.0  -0.90936   0.42511   0.14540
      22.0  -0.95457   0.46068   0.15751
      23.0  -0.93571   0.47653   0.16050
      24.0  -0.91685   0.49239   0.16350
      25.0  -0.72774   0.33935   0.00000
      26.0  -0.74861   0.36512   0.00000
      27.0  -0.76857   0.39160   0.00000
      28.0  -0.78759   0.41877   0.00000
      29.0  -0.80565   0.44658   0.00000
      30.0  -0.82272   0.47500   0.00000
      31.0  -0.83880   0.50400   0.00000
      32.0  -0.85385   0.53355   0.00000
      33.0  -0.86787   0.56360   0.00000
      34.0  -0.88082   0.59412   0.00000
      35.0  -0.89271   0.62508   0.00000
      36.0  -0.90350   0.65643   0.00000
      37.0  -0.91320   0.68814   0.00000
      38.0  -0.92178   0.72017   0.00000
      39.0  -0.92924   0.75248   0.00000
      40.0  -0.93557   0.78503   0.00000
      41.0  -0.94075   0.81779   0.00000
      42.0  -0.94480   0.85070   0.00000
      43.0  -0.94769   0.88373   0.00000
      44.0  -0.94942   0.91685   0.00000
      45.0  -0.95000   0.95000   0.00000
      46.0  -0.94942   0.98315   0.00000
      47.0  -0.94769   1.01627   0.00000
      48.0  -0.94480   1.04930   0.00000
      49.0  -0.94075   1.08221   0.00000
      50.0  -0.93557   1.11497   0.00000
      51.0  -0.92924   1.14752   0.00000
      52.0  -0.92178   1.17983   0.00000
      53.0  -0.91320   1.21186   0.00000
      54.0  -0.90350   1.24357   0.00000
      55.0  -0.89271   1.27492   0.00000
      56.0  -0.88082   1.30588   0.00000
      57.0  -0.86787   1.33640   0.00000
      58.0  -0.85385   1.36645   0.00000
      59.0  -0.83880   1.39600   0.00000
      60.0  -0.82272   1.42500   0.00000
      61.0  -0.80565   1.45342   0.00000
      62.0  -0.78759   1.48123   0.00000
      63.0  -0.76857   1.50840   0.00000
      64.0  -0.74861   1.53488   0.00000
      65.0  -0.72774   1.56065   0.00000
      66.0  -0.70599   1.58567   0.00000
      67.0  -0.68337   1.60993   0.00000
      68.0  -0.65993   1.63337   0.00000
      69.0  -0.63567   1.65599   0.00000
      70.0  -0.61065   1.67774   0.00000
      71.0  -0.58488   1.69861   0.00000
      72.0  -0.55840   1.71857   0.00000
      73.0  -0.53123   1.73759   0.00000
      74.0  -0.50342   1.75565   0.00000
      75.0  -0.47500   1.77272   0.00000
      76.0  -0.44600   1.78880   0.00000
      77.0  -0.41645   1.80385   0.00000
      78.0  -0.38640   1.81787   0.00000
      79.0  -0.35588   1.83082   0.00000
      80.0  -0.32492   1.84271   0.00000
      81.0  -0.29357   1.85350   0.00000
      82.0  -0.26186   1.86320   0.00000
      83.0  -0.22983   1.87178   0.00000
      84.0  -0.19752   1.87924   0.00000
      85.0  -0.16497   1.88557   0.00000
      86.0  -0.13221   1.89075   0.00000
      87.0  -0.09930   1.89480   0.00000
      88.0  -0.06627   1.89769   0.00000
      89.0  -0.03315   1.89942   0.00000
      90.0  -0.00000   1.90000   0.00000
      91.0   0.03315   1.89942   0.00000
      92.0   0.06627   1.89769   0.00000
      93.0   0.09930   1.89480   0.00000
      94.0   0.13221   1.89075   0.00000
      95.0   0.16497   1.88557   0.00000
      96.0   0.19752   1.87924   0.00000
      97.0   0.22983   1.87178   0.00000
      98.0   0.26186   1.86320   0.00000
      99.0   0.29357   1.85350   0.00000
     100.0   0.32492   1.84271   0.00000
     101.0   0.35588   1.83082   0.00000
     102.0   0.38640   1.81787   0.00000
     103.0   0.41645   1.80385   0.00000
     104.0   0.44600   1.78880   0.00000
     105.0   0.47500   1.77272   0.00000
     106.0   0.50342   1.75565   0.00000
     107.0   0.53123   1.73759   0.00000
     108.0   0.55840   1.71857   0.00000
     109.0   0.58488   1.69861   0.00000
     110.0   0.61065   1.67774   0.00000
     111.0   0.63567   1.65599   0.00000
     112.0   0.65993   1.63337   0.00000
     113.0   0.68337   1.60993   0.00000
     114.0   0.70599   1.58567   0.00000
     115.0   0.72774   1.56065   0.00000
     116.0   0.74861   1.53488   0.00000
     117.0   0.76857   1.50840   0.00000
     118.0   0.78759   1.48123   0.00000
     119.0   0.80565   1.45342   0.00000
     120.0   0.82272   1.42500   0.00000
     121.0   0.83880   1.39600   0.00000
     122.0   0.85385   1.36645   0.00000
     123.0   0.86787   1.33640   0.00000
     124.0   0.88082   1.30588   0.00000
     125.0   0.89271   1.27492   0.00000
     126.0   0.90350   1.24357   0.00000
     127.0   0.91320   1.21186   0.00000
     128.0   0.92178   1.17983   0.00000
     129.0   0.92924   1.14752   0.00000
     130.0   0.93557   1.11497   0.00000
     131.0   0.94075   1.08221   0.00000
     132.0   0.94480   1.04930   0.00000
     133.0   0.94769   1.01627   0.00000
     134.0   0.94942   0.98315   0.00000
     135.0   0.95000   0.95000   0.00000
     136.0   0.94942   0.91685   0.00000
     137.0   0.94769   0.88373   0.00000
     138.0   0.94480   0.85070   0.00000
     139.0   0.94075   0.81779   0.00000
     140.0   0.93557   0.78503   0.00000
     141.0   0.92924   0.75248   0.00000
     142.0   0.92178   0.72017   0.00000
     143.0   0.91320   0.68814   0.00000
     144.0   0.90350   0.65643   0.00000
     145.0   0.89271   0.62508   0.00000
     146.0   0.88082   0.59412   0.00000
     147.0   0.86787   0.56360   0.00000
     148.0   0.85385   0.53355   0.00000
     149.0   0.83880   0.50400   0.00000
     150.0   0.82272   0.47500   0.00000
     151.0   0.80565   0.44658   0.00000
     152.0   0.78759   0.41877   0.00000
     153.0   0.76857   0.39160   0.00000
     154.0   0.74861   0.36512   0.00000
     155.0   0.72774   0.33935   0.00000
     156.0   0.70599   0.31433   0.00000
     157.0   0.68337   0.29007   0.00000
     158.0   0.65993   0.26663   0.00000
     159.0   0.63567   0.24401   0.00000
     160.0   0.61065   0.22226   0.00000
     161.0   0.58488   0.20139   0.00000
     162.0   0.55840   0.18143   0.00000
     163.0   0.53123   0.16241   0.00000
     164.0   0.50342   0.14435   0.00000
     165.0   0.47500   0.12728   0.00000
     166.0   0.44600   0.11120   0.00000
     167.0   0.41645   0.09615   0.00000
     168.0   0.38640   0.08213   0.00000
     169.0   0.35588   0.06918   0.00000
     170.0   0.32492   0.05729   0.00000
     171.0   0.29357   0.04650   0.00000
     172.0   0.26186   0.03680   0.00000
     173.0   0.22983   0.02822   0.00000
     174.0   0.19752   0.02076   0.00000
     175.0   0.16497   0.01443   0.00000
     176.0   0.13221   0.00925   0.00000
     177.0   0.09930   0.00520   0.00000
     178.0   0.06627   0.00231   0.00000
     179.0   0.03315   0.00058   0.00000
     180.0   0.00000   0.00000   0.00000
