! ------------ AirfoilInfo 1.00.* Input File ----------------------------------
! Airfoil properties to be used with AeroDyn v15
! Individual tables must include alpha from -180 to 180 degrees
! Multiple tables should contain the same quantity and values for Alpha, and the secondary parameter must be monotonically increasing
! ------------------------------------------------------------------------------
! This is auto generated using GetAirfoilTableFiles.m.
! If manually edited, please document the changes made below.
! ChangeLog: AutoGen on 09-Feb-2018 14:53:23.
! ------------------------------------------------------------------------------
1         InterpOrd           ! Interpolation order to use for quasi-steady table lookup {1=linear; 3=cubic spline; "default"} [default = 3]
1.0       NonDimArea          ! Non-dimensional area of the airfoil (area/chord^2) (Set to 1.0 if unsure or unneeded)
0         NumCoords           ! Number of coordinates in the airfoil shape file. Set to zero if not included.
6         NumTabs             ! Number of airfoil tables in this file. Each table must have lines for Re and Ctrl.
! ------------------------------------------------------------------------------
! data for Table  1
! ------------------------------------------------------------------------------
4675674   Re                  ! Reynolds number in millions.
-0.523599       Ctrl                ! Control setting
False     InclUAdata          ! Is unsteady aerodynamics data included in this table? If TRUE, then include 30 UA coefs below this line.
!----------------------------------------
! Table of aerodynamic coefficients.
361       NumAlf              ! Number of data lines in the following CoeffData table
!    Alpha      Cl      Cd        Cm
!    (deg)      (-)     (-)       (-)
    -180.0   0.00000   0.00000   0.00000
    -179.0   0.03315   0.00058   0.00000
    -178.0   0.06627   0.00231   0.00000
    -177.0   0.09930   0.00520   0.00000
    -176.0   0.13221   0.00925   0.00000
    -175.0   0.16497   0.01443   0.00000
    -174.0   0.19752   0.02076   0.00000
    -173.0   0.22983   0.02822   0.00000
    -172.0   0.26186   0.03680   0.00000
    -171.0   0.29357   0.04650   0.00000
    -170.0   0.32492   0.05729   0.00000
    -169.0   0.35588   0.06918   0.00000
    -168.0   0.38640   0.08213   0.00000
    -167.0   0.41645   0.09615   0.00000
    -166.0   0.44600   0.11120   0.00000
    -165.0   0.47500   0.12728   0.00000
    -164.0   0.50342   0.14435   0.00000
    -163.0   0.53123   0.16241   0.00000
    -162.0   0.55840   0.18143   0.00000
    -161.0   0.58488   0.20139   0.00000
    -160.0   0.61065   0.22226   0.00000
    -159.0   0.63567   0.24401   0.00000
    -158.0   0.65993   0.26663   0.00000
    -157.0   0.68337   0.29007   0.00000
    -156.0   0.70599   0.31433   0.00000
    -155.0   0.72774   0.33935   0.00000
    -154.0   0.74861   0.36512   0.00000
    -153.0   0.76857   0.39160   0.00000
    -152.0   0.78759   0.41877   0.00000
    -151.0   0.80565   0.44658   0.00000
    -150.0   0.82272   0.47500   0.00000
    -149.0   0.83880   0.50400   0.00000
    -148.0   0.85385   0.53355   0.00000
    -147.0   0.86787   0.56360   0.00000
    -146.0   0.88082   0.59412   0.00000
    -145.0   0.89271   0.62508   0.00000
    -144.0   0.90350   0.65643   0.00000
    -143.0   0.91320   0.68814   0.00000
    -142.0   0.92178   0.72017   0.00000
    -141.0   0.92924   0.75248   0.00000
    -140.0   0.93557   0.78503   0.00000
    -139.0   0.94075   0.81779   0.00000
    -138.0   0.94480   0.85070   0.00000
    -137.0   0.94769   0.88373   0.00000
    -136.0   0.94942   0.91685   0.00000
    -135.0   0.95000   0.95000   0.00000
    -134.0   0.94942   0.98315   0.00000
    -133.0   0.94769   1.01627   0.00000
    -132.0   0.94480   1.04930   0.00000
    -131.0   0.94075   1.08221   0.00000
    -130.0   0.93557   1.11497   0.00000
    -129.0   0.92924   1.14752   0.00000
    -128.0   0.92178   1.17983   0.00000
    -127.0   0.91320   1.21186   0.00000
    -126.0   0.90350   1.24357   0.00000
    -125.0   0.89271   1.27492   0.00000
    -124.0   0.88082   1.30588   0.00000
    -123.0   0.86787   1.33640   0.00000
    -122.0   0.85385   1.36645   0.00000
    -121.0   0.83880   1.39600   0.00000
    -120.0   0.82272   1.42500   0.00000
    -119.0   0.80565   1.45342   0.00000
    -118.0   0.78759   1.48123   0.00000
    -117.0   0.76857   1.50840   0.00000
    -116.0   0.74861   1.53488   0.00000
    -115.0   0.72774   1.56065   0.00000
    -114.0   0.70599   1.58567   0.00000
    -113.0   0.68337   1.60993   0.00000
    -112.0   0.65993   1.63337   0.00000
    -111.0   0.63567   1.65599   0.00000
    -110.0   0.61065   1.67774   0.00000
    -109.0   0.58488   1.69861   0.00000
    -108.0   0.55840   1.71857   0.00000
    -107.0   0.53123   1.73759   0.00000
    -106.0   0.50342   1.75565   0.00000
    -105.0   0.47500   1.77272   0.00000
    -104.0   0.44600   1.78880   0.00000
    -103.0   0.41645   1.80385   0.00000
    -102.0   0.38640   1.81787   0.00000
    -101.0   0.35588   1.83082   0.00000
    -100.0   0.32492   1.84271   0.00000
     -99.0   0.29357   1.85350   0.00000
     -98.0   0.26186   1.86320   0.00000
     -97.0   0.22983   1.87178   0.00000
     -96.0   0.19752   1.87924   0.00000
     -95.0   0.16497   1.88557   0.00000
     -94.0   0.13221   1.89075   0.00000
     -93.0   0.09930   1.89480   0.00000
     -92.0   0.06627   1.89769   0.00000
     -91.0   0.03315   1.89942   0.00000
     -90.0  -0.00000   1.90000   0.00000
     -89.0  -0.03315   1.89942   0.00000
     -88.0  -0.06627   1.89769   0.00000
     -87.0  -0.09930   1.89480   0.00000
     -86.0  -0.13221   1.89075   0.00000
     -85.0  -0.16497   1.88557   0.00000
     -84.0  -0.19752   1.87924   0.00000
     -83.0  -0.22983   1.87178   0.00000
     -82.0  -0.26186   1.86320   0.00000
     -81.0  -0.29357   1.85350   0.00000
     -80.0  -0.32492   1.84271   0.00000
     -79.0  -0.35588   1.83082   0.00000
     -78.0  -0.38640   1.81787   0.00000
     -77.0  -0.41645   1.80385   0.00000
     -76.0  -0.44600   1.78880   0.00000
     -75.0  -0.47500   1.77272   0.00000
     -74.0  -0.50342   1.75565   0.00000
     -73.0  -0.53123   1.73759   0.00000
     -72.0  -0.55840   1.71857   0.00000
     -71.0  -0.58488   1.69861   0.00000
     -70.0  -0.61065   1.67774   0.00000
     -69.0  -0.63567   1.65599   0.00000
     -68.0  -0.65993   1.63337   0.00000
     -67.0  -0.68337   1.60993   0.00000
     -66.0  -0.70599   1.58567   0.00000
     -65.0  -0.72774   1.56065   0.00000
     -64.0  -0.74861   1.53488   0.00000
     -63.0  -0.76857   1.50840   0.00000
     -62.0  -0.78759   1.48123   0.00000
     -61.0  -0.80565   1.45342   0.00000
     -60.0  -0.82272   1.42500   0.00000
     -59.0  -0.83880   1.39600   0.00000
     -58.0  -0.85385   1.36645   0.00000
     -57.0  -0.86787   1.33640   0.00000
     -56.0  -0.88082   1.30588   0.00000
     -55.0  -0.89271   1.27492   0.00000
     -54.0  -0.90350   1.24357   0.00000
     -53.0  -0.91320   1.21186   0.00000
     -52.0  -0.92178   1.17983   0.00000
     -51.0  -0.92924   1.14752   0.00000
     -50.0  -0.93557   1.11497   0.00000
     -49.0  -0.94075   1.08221   0.00000
     -48.0  -0.94480   1.04930   0.00000
     -47.0  -0.94769   1.01627   0.00000
     -46.0  -0.94942   0.98315   0.00000
     -45.0  -0.95000   0.95000   0.00000
     -44.0  -0.94942   0.91685   0.00000
     -43.0  -0.94769   0.88373   0.00000
     -42.0  -0.94480   0.85070   0.00000
     -41.0  -0.94075   0.81779   0.00000
     -40.0  -0.93557   0.78503   0.00000
     -39.0  -0.92924   0.75248   0.00000
     -38.0  -0.92178   0.72017   0.00000
     -37.0  -0.91320   0.68814   0.00000
     -36.0  -0.90350   0.65643   0.00000
     -35.0  -0.89271   0.62508   0.00000
     -34.0  -0.88082   0.59412   0.00000
     -33.0  -0.86787   0.56360   0.00000
     -32.0  -0.85385   0.53355   0.00000
     -31.0  -0.83880   0.50400   0.00000
     -30.0  -0.82272   0.47500   0.00000
     -29.0  -0.80565   0.44658   0.00000
     -28.0  -0.78759   0.41877   0.00000
     -27.0  -0.76857   0.39160   0.00000
     -26.0  -0.74861   0.36512   0.00000
     -25.0  -0.72774   0.33935   0.00000
     -24.0  -1.26617   0.77488   0.34211
     -23.0  -1.26063   0.74107   0.33381
     -22.0  -1.25510   0.70726   0.32551
     -21.0  -1.25800   0.66498   0.31617
     -20.0  -1.26090   0.62270   0.30684
     -19.0  -1.20707   0.57595   0.29222
     -18.0  -1.15325   0.52921   0.27760
     -17.0  -1.19535   0.44353   0.23989
     -16.0  -1.23746   0.35784   0.20218
     -15.0  -1.29123   0.39449   0.23668
     -14.0  -1.34499   0.43113   0.27119
     -13.0  -1.77097   0.27623   0.20232
     -12.0  -2.19695   0.12132   0.13346
     -11.0  -2.15199   0.11088   0.13543
     -10.0  -2.10703   0.10043   0.13741
      -9.0  -2.05229   0.09422   0.14189
      -8.0  -1.99756   0.08801   0.14637
      -7.0  -1.93086   0.08402   0.15138
      -6.0  -1.86416   0.08004   0.15640
      -5.0  -1.78240   0.07670   0.16014
      -4.0  -1.70065   0.07337   0.16387
      -3.0  -1.61016   0.07054   0.16685
      -2.0  -1.51967   0.06770   0.16983
      -1.0  -1.42233   0.06491   0.17157
       0.0  -1.32499   0.06211   0.17331
       1.0  -1.22335   0.05969   0.17451
       2.0  -1.12170   0.05727   0.17572
       3.0  -1.01804   0.05511   0.17633
       4.0  -0.91439   0.05294   0.17694
       5.0  -0.81117   0.05122   0.17742
       6.0  -0.70794   0.04951   0.17790
       7.0  -0.60658   0.04813   0.17804
       8.0  -0.50521   0.04676   0.17818
       9.0  -0.40223   0.04570   0.17728
      10.0  -0.29924   0.04464   0.17638
      11.0  -0.19189   0.04378   0.17339
      12.0  -0.08453   0.04292   0.17040
      13.0  -0.19444   0.03041   0.19738
      14.0  -0.30434   0.01791   0.22436
      15.0  -0.17977   0.01794   0.21790
      16.0  -0.05520   0.01797   0.21145
      17.0   0.07951   0.01874   0.20135
      18.0   0.21423   0.01951   0.19126
      19.0   0.35263   0.02125   0.17681
      20.0   0.49102   0.02299   0.16235
      21.0   0.55293   0.02635   0.15367
      22.0   0.61484   0.02971   0.14500
      23.0   0.56371   0.03645   0.14551
      24.0   0.51257   0.04318   0.14601
      25.0   0.72774   0.33935   0.00000
      26.0   0.74861   0.36512   0.00000
      27.0   0.76857   0.39160   0.00000
      28.0   0.78759   0.41877   0.00000
      29.0   0.80565   0.44658   0.00000
      30.0   0.82272   0.47500   0.00000
      31.0   0.83880   0.50400   0.00000
      32.0   0.85385   0.53355   0.00000
      33.0   0.86787   0.56360   0.00000
      34.0   0.88082   0.59412   0.00000
      35.0   0.89271   0.62508   0.00000
      36.0   0.90350   0.65643   0.00000
      37.0   0.91320   0.68814   0.00000
      38.0   0.92178   0.72017   0.00000
      39.0   0.92924   0.75248   0.00000
      40.0   0.93557   0.78503   0.00000
      41.0   0.94075   0.81779   0.00000
      42.0   0.94480   0.85070   0.00000
      43.0   0.94769   0.88373   0.00000
      44.0   0.94942   0.91685   0.00000
      45.0   0.95000   0.95000   0.00000
      46.0   0.94942   0.98315   0.00000
      47.0   0.94769   1.01627   0.00000
      48.0   0.94480   1.04930   0.00000
      49.0   0.94075   1.08221   0.00000
      50.0   0.93557   1.11497   0.00000
      51.0   0.92924   1.14752   0.00000
      52.0   0.92178   1.17983   0.00000
      53.0   0.91320   1.21186   0.00000
      54.0   0.90350   1.24357   0.00000
      55.0   0.89271   1.27492   0.00000
      56.0   0.88082   1.30588   0.00000
      57.0   0.86787   1.33640   0.00000
      58.0   0.85385   1.36645   0.00000
      59.0   0.83880   1.39600   0.00000
      60.0   0.82272   1.42500   0.00000
      61.0   0.80565   1.45342   0.00000
      62.0   0.78759   1.48123   0.00000
      63.0   0.76857   1.50840   0.00000
      64.0   0.74861   1.53488   0.00000
      65.0   0.72774   1.56065   0.00000
      66.0   0.70599   1.58567   0.00000
      67.0   0.68337   1.60993   0.00000
      68.0   0.65993   1.63337   0.00000
      69.0   0.63567   1.65599   0.00000
      70.0   0.61065   1.67774   0.00000
      71.0   0.58488   1.69861   0.00000
      72.0   0.55840   1.71857   0.00000
      73.0   0.53123   1.73759   0.00000
      74.0   0.50342   1.75565   0.00000
      75.0   0.47500   1.77272   0.00000
      76.0   0.44600   1.78880   0.00000
      77.0   0.41645   1.80385   0.00000
      78.0   0.38640   1.81787   0.00000
      79.0   0.35588   1.83082   0.00000
      80.0   0.32492   1.84271   0.00000
      81.0   0.29357   1.85350   0.00000
      82.0   0.26186   1.86320   0.00000
      83.0   0.22983   1.87178   0.00000
      84.0   0.19752   1.87924   0.00000
      85.0   0.16497   1.88557   0.00000
      86.0   0.13221   1.89075   0.00000
      87.0   0.09930   1.89480   0.00000
      88.0   0.06627   1.89769   0.00000
      89.0   0.03315   1.89942   0.00000
      90.0   0.00000   1.90000   0.00000
      91.0  -0.03315   1.89942   0.00000
      92.0  -0.06627   1.89769   0.00000
      93.0  -0.09930   1.89480   0.00000
      94.0  -0.13221   1.89075   0.00000
      95.0  -0.16497   1.88557   0.00000
      96.0  -0.19752   1.87924   0.00000
      97.0  -0.22983   1.87178   0.00000
      98.0  -0.26186   1.86320   0.00000
      99.0  -0.29357   1.85350   0.00000
     100.0  -0.32492   1.84271   0.00000
     101.0  -0.35588   1.83082   0.00000
     102.0  -0.38640   1.81787   0.00000
     103.0  -0.41645   1.80385   0.00000
     104.0  -0.44600   1.78880   0.00000
     105.0  -0.47500   1.77272   0.00000
     106.0  -0.50342   1.75565   0.00000
     107.0  -0.53123   1.73759   0.00000
     108.0  -0.55840   1.71857   0.00000
     109.0  -0.58488   1.69861   0.00000
     110.0  -0.61065   1.67774   0.00000
     111.0  -0.63567   1.65599   0.00000
     112.0  -0.65993   1.63337   0.00000
     113.0  -0.68337   1.60993   0.00000
     114.0  -0.70599   1.58567   0.00000
     115.0  -0.72774   1.56065   0.00000
     116.0  -0.74861   1.53488   0.00000
     117.0  -0.76857   1.50840   0.00000
     118.0  -0.78759   1.48123   0.00000
     119.0  -0.80565   1.45342   0.00000
     120.0  -0.82272   1.42500   0.00000
     121.0  -0.83880   1.39600   0.00000
     122.0  -0.85385   1.36645   0.00000
     123.0  -0.86787   1.33640   0.00000
     124.0  -0.88082   1.30588   0.00000
     125.0  -0.89271   1.27492   0.00000
     126.0  -0.90350   1.24357   0.00000
     127.0  -0.91320   1.21186   0.00000
     128.0  -0.92178   1.17983   0.00000
     129.0  -0.92924   1.14752   0.00000
     130.0  -0.93557   1.11497   0.00000
     131.0  -0.94075   1.08221   0.00000
     132.0  -0.94480   1.04930   0.00000
     133.0  -0.94769   1.01627   0.00000
     134.0  -0.94942   0.98315   0.00000
     135.0  -0.95000   0.95000   0.00000
     136.0  -0.94942   0.91685   0.00000
     137.0  -0.94769   0.88373   0.00000
     138.0  -0.94480   0.85070   0.00000
     139.0  -0.94075   0.81779   0.00000
     140.0  -0.93557   0.78503   0.00000
     141.0  -0.92924   0.75248   0.00000
     142.0  -0.92178   0.72017   0.00000
     143.0  -0.91320   0.68814   0.00000
     144.0  -0.90350   0.65643   0.00000
     145.0  -0.89271   0.62508   0.00000
     146.0  -0.88082   0.59412   0.00000
     147.0  -0.86787   0.56360   0.00000
     148.0  -0.85385   0.53355   0.00000
     149.0  -0.83880   0.50400   0.00000
     150.0  -0.82272   0.47500   0.00000
     151.0  -0.80565   0.44658   0.00000
     152.0  -0.78759   0.41877   0.00000
     153.0  -0.76857   0.39160   0.00000
     154.0  -0.74861   0.36512   0.00000
     155.0  -0.72774   0.33935   0.00000
     156.0  -0.70599   0.31433   0.00000
     157.0  -0.68337   0.29007   0.00000
     158.0  -0.65993   0.26663   0.00000
     159.0  -0.63567   0.24401   0.00000
     160.0  -0.61065   0.22226   0.00000
     161.0  -0.58488   0.20139   0.00000
     162.0  -0.55840   0.18143   0.00000
     163.0  -0.53123   0.16241   0.00000
     164.0  -0.50342   0.14435   0.00000
     165.0  -0.47500   0.12728   0.00000
     166.0  -0.44600   0.11120   0.00000
     167.0  -0.41645   0.09615   0.00000
     168.0  -0.38640   0.08213   0.00000
     169.0  -0.35588   0.06918   0.00000
     170.0  -0.32492   0.05729   0.00000
     171.0  -0.29357   0.04650   0.00000
     172.0  -0.26186   0.03680   0.00000
     173.0  -0.22983   0.02822   0.00000
     174.0  -0.19752   0.02076   0.00000
     175.0  -0.16497   0.01443   0.00000
     176.0  -0.13221   0.00925   0.00000
     177.0  -0.09930   0.00520   0.00000
     178.0  -0.06627   0.00231   0.00000
     179.0  -0.03315   0.00058   0.00000
     180.0   0.00000   0.00000   0.00000
! ------------------------------------------------------------------------------
! data for Table  2
! ------------------------------------------------------------------------------
4675674   Re                  ! Reynolds number in millions.
-0.349066       Ctrl                ! Control setting
False     InclUAdata          ! Is unsteady aerodynamics data included in this table? If TRUE, then include 30 UA coefs below this line.
!----------------------------------------
! Table of aerodynamic coefficients.
361       NumAlf              ! Number of data lines in the following CoeffData table
!    Alpha      Cl      Cd        Cm
!    (deg)      (-)     (-)       (-)
    -180.0   0.00000   0.00000   0.00000
    -179.0   0.03315   0.00058   0.00000
    -178.0   0.06627   0.00231   0.00000
    -177.0   0.09930   0.00520   0.00000
    -176.0   0.13221   0.00925   0.00000
    -175.0   0.16497   0.01443   0.00000
    -174.0   0.19752   0.02076   0.00000
    -173.0   0.22983   0.02822   0.00000
    -172.0   0.26186   0.03680   0.00000
    -171.0   0.29357   0.04650   0.00000
    -170.0   0.32492   0.05729   0.00000
    -169.0   0.35588   0.06918   0.00000
    -168.0   0.38640   0.08213   0.00000
    -167.0   0.41645   0.09615   0.00000
    -166.0   0.44600   0.11120   0.00000
    -165.0   0.47500   0.12728   0.00000
    -164.0   0.50342   0.14435   0.00000
    -163.0   0.53123   0.16241   0.00000
    -162.0   0.55840   0.18143   0.00000
    -161.0   0.58488   0.20139   0.00000
    -160.0   0.61065   0.22226   0.00000
    -159.0   0.63567   0.24401   0.00000
    -158.0   0.65993   0.26663   0.00000
    -157.0   0.68337   0.29007   0.00000
    -156.0   0.70599   0.31433   0.00000
    -155.0   0.72774   0.33935   0.00000
    -154.0   0.74861   0.36512   0.00000
    -153.0   0.76857   0.39160   0.00000
    -152.0   0.78759   0.41877   0.00000
    -151.0   0.80565   0.44658   0.00000
    -150.0   0.82272   0.47500   0.00000
    -149.0   0.83880   0.50400   0.00000
    -148.0   0.85385   0.53355   0.00000
    -147.0   0.86787   0.56360   0.00000
    -146.0   0.88082   0.59412   0.00000
    -145.0   0.89271   0.62508   0.00000
    -144.0   0.90350   0.65643   0.00000
    -143.0   0.91320   0.68814   0.00000
    -142.0   0.92178   0.72017   0.00000
    -141.0   0.92924   0.75248   0.00000
    -140.0   0.93557   0.78503   0.00000
    -139.0   0.94075   0.81779   0.00000
    -138.0   0.94480   0.85070   0.00000
    -137.0   0.94769   0.88373   0.00000
    -136.0   0.94942   0.91685   0.00000
    -135.0   0.95000   0.95000   0.00000
    -134.0   0.94942   0.98315   0.00000
    -133.0   0.94769   1.01627   0.00000
    -132.0   0.94480   1.04930   0.00000
    -131.0   0.94075   1.08221   0.00000
    -130.0   0.93557   1.11497   0.00000
    -129.0   0.92924   1.14752   0.00000
    -128.0   0.92178   1.17983   0.00000
    -127.0   0.91320   1.21186   0.00000
    -126.0   0.90350   1.24357   0.00000
    -125.0   0.89271   1.27492   0.00000
    -124.0   0.88082   1.30588   0.00000
    -123.0   0.86787   1.33640   0.00000
    -122.0   0.85385   1.36645   0.00000
    -121.0   0.83880   1.39600   0.00000
    -120.0   0.82272   1.42500   0.00000
    -119.0   0.80565   1.45342   0.00000
    -118.0   0.78759   1.48123   0.00000
    -117.0   0.76857   1.50840   0.00000
    -116.0   0.74861   1.53488   0.00000
    -115.0   0.72774   1.56065   0.00000
    -114.0   0.70599   1.58567   0.00000
    -113.0   0.68337   1.60993   0.00000
    -112.0   0.65993   1.63337   0.00000
    -111.0   0.63567   1.65599   0.00000
    -110.0   0.61065   1.67774   0.00000
    -109.0   0.58488   1.69861   0.00000
    -108.0   0.55840   1.71857   0.00000
    -107.0   0.53123   1.73759   0.00000
    -106.0   0.50342   1.75565   0.00000
    -105.0   0.47500   1.77272   0.00000
    -104.0   0.44600   1.78880   0.00000
    -103.0   0.41645   1.80385   0.00000
    -102.0   0.38640   1.81787   0.00000
    -101.0   0.35588   1.83082   0.00000
    -100.0   0.32492   1.84271   0.00000
     -99.0   0.29357   1.85350   0.00000
     -98.0   0.26186   1.86320   0.00000
     -97.0   0.22983   1.87178   0.00000
     -96.0   0.19752   1.87924   0.00000
     -95.0   0.16497   1.88557   0.00000
     -94.0   0.13221   1.89075   0.00000
     -93.0   0.09930   1.89480   0.00000
     -92.0   0.06627   1.89769   0.00000
     -91.0   0.03315   1.89942   0.00000
     -90.0  -0.00000   1.90000   0.00000
     -89.0  -0.03315   1.89942   0.00000
     -88.0  -0.06627   1.89769   0.00000
     -87.0  -0.09930   1.89480   0.00000
     -86.0  -0.13221   1.89075   0.00000
     -85.0  -0.16497   1.88557   0.00000
     -84.0  -0.19752   1.87924   0.00000
     -83.0  -0.22983   1.87178   0.00000
     -82.0  -0.26186   1.86320   0.00000
     -81.0  -0.29357   1.85350   0.00000
     -80.0  -0.32492   1.84271   0.00000
     -79.0  -0.35588   1.83082   0.00000
     -78.0  -0.38640   1.81787   0.00000
     -77.0  -0.41645   1.80385   0.00000
     -76.0  -0.44600   1.78880   0.00000
     -75.0  -0.47500   1.77272   0.00000
     -74.0  -0.50342   1.75565   0.00000
     -73.0  -0.53123   1.73759   0.00000
     -72.0  -0.55840   1.71857   0.00000
     -71.0  -0.58488   1.69861   0.00000
     -70.0  -0.61065   1.67774   0.00000
     -69.0  -0.63567   1.65599   0.00000
     -68.0  -0.65993   1.63337   0.00000
     -67.0  -0.68337   1.60993   0.00000
     -66.0  -0.70599   1.58567   0.00000
     -65.0  -0.72774   1.56065   0.00000
     -64.0  -0.74861   1.53488   0.00000
     -63.0  -0.76857   1.50840   0.00000
     -62.0  -0.78759   1.48123   0.00000
     -61.0  -0.80565   1.45342   0.00000
     -60.0  -0.82272   1.42500   0.00000
     -59.0  -0.83880   1.39600   0.00000
     -58.0  -0.85385   1.36645   0.00000
     -57.0  -0.86787   1.33640   0.00000
     -56.0  -0.88082   1.30588   0.00000
     -55.0  -0.89271   1.27492   0.00000
     -54.0  -0.90350   1.24357   0.00000
     -53.0  -0.91320   1.21186   0.00000
     -52.0  -0.92178   1.17983   0.00000
     -51.0  -0.92924   1.14752   0.00000
     -50.0  -0.93557   1.11497   0.00000
     -49.0  -0.94075   1.08221   0.00000
     -48.0  -0.94480   1.04930   0.00000
     -47.0  -0.94769   1.01627   0.00000
     -46.0  -0.94942   0.98315   0.00000
     -45.0  -0.95000   0.95000   0.00000
     -44.0  -0.94942   0.91685   0.00000
     -43.0  -0.94769   0.88373   0.00000
     -42.0  -0.94480   0.85070   0.00000
     -41.0  -0.94075   0.81779   0.00000
     -40.0  -0.93557   0.78503   0.00000
     -39.0  -0.92924   0.75248   0.00000
     -38.0  -0.92178   0.72017   0.00000
     -37.0  -0.91320   0.68814   0.00000
     -36.0  -0.90350   0.65643   0.00000
     -35.0  -0.89271   0.62508   0.00000
     -34.0  -0.88082   0.59412   0.00000
     -33.0  -0.86787   0.56360   0.00000
     -32.0  -0.85385   0.53355   0.00000
     -31.0  -0.83880   0.50400   0.00000
     -30.0  -0.82272   0.47500   0.00000
     -29.0  -0.80565   0.44658   0.00000
     -28.0  -0.78759   0.41877   0.00000
     -27.0  -0.76857   0.39160   0.00000
     -26.0  -0.74861   0.36512   0.00000
     -25.0  -0.72774   0.33935   0.00000
     -24.0  -1.21289   0.62358   0.30737
     -23.0  -1.15308   0.56827   0.28319
     -22.0  -1.09326   0.51296   0.25900
     -21.0  -1.10193   0.48436   0.24857
     -20.0  -1.11060   0.45575   0.23814
     -19.0  -1.07472   0.41986   0.22410
     -18.0  -1.03884   0.38396   0.21005
     -17.0  -1.17129   0.41143   0.24516
     -16.0  -1.30374   0.43889   0.28027
     -15.0  -1.64010   0.27093   0.18866
     -14.0  -1.97645   0.10297   0.09704
     -13.0  -1.95592   0.08966   0.09586
     -12.0  -1.93539   0.07635   0.09468
     -11.0  -1.87735   0.06848   0.09572
     -10.0  -1.81930   0.06061   0.09677
      -9.0  -1.74909   0.05554   0.09945
      -8.0  -1.67889   0.05046   0.10214
      -7.0  -1.60290   0.04692   0.10574
      -6.0  -1.52691   0.04337   0.10935
      -5.0  -1.45262   0.04087   0.11421
      -4.0  -1.37834   0.03836   0.11908
      -3.0  -1.30293   0.03607   0.12390
      -2.0  -1.22753   0.03377   0.12873
      -1.0  -1.15590   0.03155   0.13379
       0.0  -1.08428   0.02933   0.13884
       1.0  -1.02031   0.02619   0.14338
       2.0  -0.95635   0.02304   0.14792
       3.0  -0.87685   0.02049   0.15061
       4.0  -0.79736   0.01793   0.15331
       5.0  -0.69230   0.01692   0.15372
       6.0  -0.58723   0.01590   0.15413
       7.0  -0.47202   0.01557   0.15283
       8.0  -0.35681   0.01525   0.15152
       9.0  -0.23409   0.01540   0.14800
      10.0  -0.11137   0.01556   0.14448
      11.0   0.01589   0.01634   0.13842
      12.0   0.14315   0.01712   0.13236
      13.0   0.23535   0.01455   0.13947
      14.0   0.32755   0.01198   0.14658
      15.0   0.46048   0.01353   0.13822
      16.0   0.59341   0.01507   0.12986
      17.0   0.71653   0.01782   0.11859
      18.0   0.83966   0.02057   0.10731
      19.0   0.86213   0.02836   0.09540
      20.0   0.88460   0.03615   0.08348
      21.0   0.90877   0.04288   0.07889
      22.0   0.93295   0.04962   0.07430
      23.0   0.95052   0.06387   0.06308
      24.0   0.96808   0.07813   0.05186
      25.0   0.72774   0.33935   0.00000
      26.0   0.74861   0.36512   0.00000
      27.0   0.76857   0.39160   0.00000
      28.0   0.78759   0.41877   0.00000
      29.0   0.80565   0.44658   0.00000
      30.0   0.82272   0.47500   0.00000
      31.0   0.83880   0.50400   0.00000
      32.0   0.85385   0.53355   0.00000
      33.0   0.86787   0.56360   0.00000
      34.0   0.88082   0.59412   0.00000
      35.0   0.89271   0.62508   0.00000
      36.0   0.90350   0.65643   0.00000
      37.0   0.91320   0.68814   0.00000
      38.0   0.92178   0.72017   0.00000
      39.0   0.92924   0.75248   0.00000
      40.0   0.93557   0.78503   0.00000
      41.0   0.94075   0.81779   0.00000
      42.0   0.94480   0.85070   0.00000
      43.0   0.94769   0.88373   0.00000
      44.0   0.94942   0.91685   0.00000
      45.0   0.95000   0.95000   0.00000
      46.0   0.94942   0.98315   0.00000
      47.0   0.94769   1.01627   0.00000
      48.0   0.94480   1.04930   0.00000
      49.0   0.94075   1.08221   0.00000
      50.0   0.93557   1.11497   0.00000
      51.0   0.92924   1.14752   0.00000
      52.0   0.92178   1.17983   0.00000
      53.0   0.91320   1.21186   0.00000
      54.0   0.90350   1.24357   0.00000
      55.0   0.89271   1.27492   0.00000
      56.0   0.88082   1.30588   0.00000
      57.0   0.86787   1.33640   0.00000
      58.0   0.85385   1.36645   0.00000
      59.0   0.83880   1.39600   0.00000
      60.0   0.82272   1.42500   0.00000
      61.0   0.80565   1.45342   0.00000
      62.0   0.78759   1.48123   0.00000
      63.0   0.76857   1.50840   0.00000
      64.0   0.74861   1.53488   0.00000
      65.0   0.72774   1.56065   0.00000
      66.0   0.70599   1.58567   0.00000
      67.0   0.68337   1.60993   0.00000
      68.0   0.65993   1.63337   0.00000
      69.0   0.63567   1.65599   0.00000
      70.0   0.61065   1.67774   0.00000
      71.0   0.58488   1.69861   0.00000
      72.0   0.55840   1.71857   0.00000
      73.0   0.53123   1.73759   0.00000
      74.0   0.50342   1.75565   0.00000
      75.0   0.47500   1.77272   0.00000
      76.0   0.44600   1.78880   0.00000
      77.0   0.41645   1.80385   0.00000
      78.0   0.38640   1.81787   0.00000
      79.0   0.35588   1.83082   0.00000
      80.0   0.32492   1.84271   0.00000
      81.0   0.29357   1.85350   0.00000
      82.0   0.26186   1.86320   0.00000
      83.0   0.22983   1.87178   0.00000
      84.0   0.19752   1.87924   0.00000
      85.0   0.16497   1.88557   0.00000
      86.0   0.13221   1.89075   0.00000
      87.0   0.09930   1.89480   0.00000
      88.0   0.06627   1.89769   0.00000
      89.0   0.03315   1.89942   0.00000
      90.0   0.00000   1.90000   0.00000
      91.0  -0.03315   1.89942   0.00000
      92.0  -0.06627   1.89769   0.00000
      93.0  -0.09930   1.89480   0.00000
      94.0  -0.13221   1.89075   0.00000
      95.0  -0.16497   1.88557   0.00000
      96.0  -0.19752   1.87924   0.00000
      97.0  -0.22983   1.87178   0.00000
      98.0  -0.26186   1.86320   0.00000
      99.0  -0.29357   1.85350   0.00000
     100.0  -0.32492   1.84271   0.00000
     101.0  -0.35588   1.83082   0.00000
     102.0  -0.38640   1.81787   0.00000
     103.0  -0.41645   1.80385   0.00000
     104.0  -0.44600   1.78880   0.00000
     105.0  -0.47500   1.77272   0.00000
     106.0  -0.50342   1.75565   0.00000
     107.0  -0.53123   1.73759   0.00000
     108.0  -0.55840   1.71857   0.00000
     109.0  -0.58488   1.69861   0.00000
     110.0  -0.61065   1.67774   0.00000
     111.0  -0.63567   1.65599   0.00000
     112.0  -0.65993   1.63337   0.00000
     113.0  -0.68337   1.60993   0.00000
     114.0  -0.70599   1.58567   0.00000
     115.0  -0.72774   1.56065   0.00000
     116.0  -0.74861   1.53488   0.00000
     117.0  -0.76857   1.50840   0.00000
     118.0  -0.78759   1.48123   0.00000
     119.0  -0.80565   1.45342   0.00000
     120.0  -0.82272   1.42500   0.00000
     121.0  -0.83880   1.39600   0.00000
     122.0  -0.85385   1.36645   0.00000
     123.0  -0.86787   1.33640   0.00000
     124.0  -0.88082   1.30588   0.00000
     125.0  -0.89271   1.27492   0.00000
     126.0  -0.90350   1.24357   0.00000
     127.0  -0.91320   1.21186   0.00000
     128.0  -0.92178   1.17983   0.00000
     129.0  -0.92924   1.14752   0.00000