---KiteAeroDyn v1.00.* ACTUATOR DISK FILE ---
gen4_k1p36_f1p0_3DNREL_LeftHanded
---ACTUATOR DISK PROPERTIES ---
 23       NumOmega - Number of rotor rotational speeds (-) [>=2]
 21       NumVinf - Number of freestream velocities (-) [>=2]
 7       NumSkew - Number of skew angles (-) [>=2]
 2       NumPitch - Number of pitch angles (-) [>=2]
  Omega           Vinf        Skew         Pitch      C_Fx         C_Fy          C_Fz         C_Mx          C_My          C_Mz        C_P
  (rad/s)         (m/s)       (deg)        (deg)       (-)         (-)            (-)         (-)           (-)           (-)         (-)
-2.600000e+02 0.000000e+00 0.000000e+00 0.000000e+00 1.854553e-01 0.000000e+00 0.000000e+00 2.190276e-02 -0.000000e+00 -0.000000e+00 -0.000000e+00 
-2.500000e+02 0.000000e+00 0.000000e+00 0.000000e+00 1.860380e-01 0.000000e+00 0.000000e+00 2.093390e-02 0.000000e+00 -0.000000e+00 -0.000000e+00 
-2.400000e+02 0.000000e+00 0.000000e+00 0.000000e+00 1.861160e-01 -0.000000e+00 0.000000e+00 1.980720e-02 0.000000e+00 -0.000000e+00 -0.000000e+00 
-2.300000e+02 0.000000e+00 0.000000e+00 0.000000e+00 1.857155e-01 -0.000000e+00 0.000000e+00 1.857380e-02 -0.000000e+00 -0.000000e+00 -0.000000e+00 
-2.200000e+02 0.000000e+00 0.000000e+00 0.000000e+00 1.849831e-01 -0.000000e+00 -0.000000e+00 1.733796e-02 -0.000000e+00 -0.000000e+00 -0.000000e+00 
-2.100000e+02 0.000000e+00 0.000000e+00 0.000000e+00 1.838262e-01 0.000000e+00 0.000000e+00 1.620847e-02 -0.000000e+00 -0.000000e+00 -0.000000e+00 
-2.000000e+02 0.000000e+00 0.000000e+00 0.000000e+00 1.828661e-01 0.000000e+00 0.000000e+00 1.532682e-02 0.000000e+00 -0.000000e+00 -0.000000e+00 
-1.900000e+02 0.000000e+00 0.000000e+00 0.000000e+00 1.816760e-01 -0.000000e+00 0.000000e+00 1.471282e-02 0.000000e+00 -0.000000e+00 -0.000000e+00 
-1.800000e+02 0.000000e+00 0.000000e+00 0.000000e+00 1.806573e-01 0.000000e+00 0.000000e+00 1.434572e-02 -0.000000e+00 -0.000000e+00 -0.000000e+00 
-1.700000e+02 0.000000e+00 0.000000e+00 0.000000e+00 1.794619e-01 0.000000e+00 0.000000e+00 1.412026e-02 0.000000e+00 -0.000000e+00 -0.000000e+00 
-1.600000e+02 0.000000e+00 0.000000e+00 0.000000e+00 1.784427e-01 0.000000e+00 0.000000e+00 1.397044e-02 0.000000e+00 -0.000000e+00 -0.000000e+00 
-1.500000e+02 0.000000e+00 0.000000e+00 0.000000e+00 1.776272e-01 0.000000e+00 0.000000e+00 1.386211e-02 -0.000000e+00 -0.000000e+00 -0.000000e+00 
-1.400000e+02 0.000000e+00 0.000000e+00 0.000000e+00 1.765815e-01 -0.000000e+00 0.000000e+00 1.376614e-02 -0.000000e+00 -0.000000e+00 -0.000000e+00 
-1.300000e+02 0.000000e+00 0.000000e+00 0.000000e+00 1.761541e-01 0.000000e+00 0.000000e+00 1.368757e-02 0.000000e+00 -0.000000e+00 -0.000000e+00 
-1.200000e+02 0.000000e+00 0.000000e+00 0.000000e+00 1.754669e-01 -0.000000e+00 0.000000e+00 1.361301e-02 0.000000e+00 -0.000000e+00 -0.000000e+00 
-1.100000e+02 0.000000e+00 0.000000e+00 0.000000e+00 1.749443e-01 0.000000e+00 -0.000000e+00 1.354696e-02 0.000000e+00 -0.000000e+00 -0.000000e+00 
-1.000000e+02 0.000000e+00 0.000000e+00 0.000000e+00 1.740047e-01 0.000000e+00 -0.000000e+00 1.348133e-02 0.000000e+00 -0.000000e+00 -0.000000e+00 
-9.000000e+01 0.000000e+00 0.000000e+00 0.000000e+00 1.738060e-01 0.000000e+00 0.000000e+00 1.343163e-02 0.000000e+00 -0.000000e+00 -0.000000e+00 
-8.000000e+01 0.000000e+00 0.000000e+00 0.000000e+00 1.730952e-01 -0.000000e+00 0.000000e+00 1.338080e-02 0.000000e+00 -0.000000e+00 -0.000000e+00 
-7.000000e+01 0.000000e+00 0.000000e+00 0.000000e+00 1.733012e-01 0.000000e+00 0.000000e+00 1.334710e-02 0.000000e+00 -0.000000e+00 -0.000000e+00 
-6.000000e+01 0.000000e+00 0.000000e+00 0.000000e+00 1.728903e-01 -0.000000e+00 0.000000e+00 1.331199e-02 0.000000e+00 -0.000000e+00 -0.000000e+00 
-5.000000e+01 0.000000e+00 0.000000e+00 0.000000e+00 1.725562e-01 -0.000000e+00 0.000000e+00 1.328094e-02 -0.000000e+00 -0.000000e+00 -0.000000e+00 
-4.000000e+01 0.000000e+00 0.000000e+00 0.000000e+00 1.723342e-01 -0.000000e+00 0.000000e+00 1.325529e-02 0.000000e+00 -0.000000e+00 -0.000000e+00 
-2.600000e+02 5.000000e+00 0.000000e+00 0.000000e+00 1.804802e-01 -4.389657e-08 -0.000000e+00 2.136858e-02 -0.000000e+00 -0.000000e+00 -0.000000e+00 
-2.500000e+02 5.000000e+00 0.000000e+00 0.000000e+00 1.805589e-01 -4.747853e-08 0.000000e+00 2.036335e-02 -0.000000e+00 -0.000000e+00 -0.000000e+00 
-2.400000e+02 5.000000e+00 0.000000e+00 0.000000e+00 1.800156e-01 -5.151751e-08 0.000000e+00 1.921690e-02 0.000000e+00 -0.000000e+00 -0.000000e+00 
-2.300000e+02 5.000000e+00 0.000000e+00 0.000000e+00 1.793564e-01 -5.609467e-08 0.000000e+00 1.803049e-02 0.000000e+00 -0.000000e+00 -0.000000e+00 
-2.200000e+02 5.000000e+00 0.000000e+00 0.000000e+00 1.780162e-01 -6.131009e-08 0.000000e+00 1.684008e-02 0.000000e+00 -0.000000e+00 -0.000000e+00 
-2.100000e+02 5.000000e+00 0.000000e+00 0.000000e+00 1.766267e-01 -6.728817e-08 -0.000000e+00 1.580496e-02 0.000000e+00 -0.000000e+00 -0.000000e+00 
-2.000000e+02 5.000000e+00 0.000000e+00 0.000000e+00 1.749878e-01 -7.418521e-08 0.000000e+00 1.499208e-02 0.000000e+00 -0.000000e+00 -0.000000e+00 
-1.900000e+02 5.000000e+00 0.000000e+00 0.000000e+00 1.739762e-01 -8.219967e-08 0.000000e+00 1.446344e-02 -0.000000e+00 -0.000000e+00 -0.000000e+00 
-1.800000e+02 5.000000e+00 0.000000e+00 0.000000e+00 1.721993e-01 -9.158667e-08 -0.000000e+00 1.412065e-02 -0.000000e+00 -0.000000e+00 -0.000000e+00 
-1.700000e+02 5.000000e+00 0.000000e+00 0.000000e+00 1.707492e-01 -1.026785e-07 0.000000e+00 1.391669e-02 0.000000e+00 -0.000000e+00 -0.000000e+00 
-1.600000e+02 5.000000e+00 0.000000e+00 0.000000e+00 1.687966e-01 -1.159144e-07 0.000000e+00 1.375699e-02 -0.000000e+00 -0.000000e+00 -0.000000e+00 
-1.500000e+02 5.000000e+00 0.000000e+00 0.000000e+00 1.671795e-01 -1.318848e-07 0.000000e+00 1.363599e-02 0.000000e+00 -0.000000e+00 -0.000000e+00 
-1.400000e+02 5.000000e+00 0.000000e+00 0.000000e+00 1.658952e-01 -1.513984e-07 -0.000000e+00 1.353444e-02 0.000000e+00 -0.000000e+00 -0.000000e+00 
-1.300000e+02 5.000000e+00 0.000000e+00 0.000000e+00 1.641985e-01 -1.755863e-07 0.000000e+00 1.342810e-02 -0.000000e+00 -0.000000e+00 -0.000000e+00 
-1.200000e+02 5.000000e+00 0.000000e+00 0.000000e+00 1.619427e-01 -2.060700e-07 0.000000e+00 1.331037e-02 -0.000000e+00 -0.000000e+00 -0.000000e+00 
-1.100000e+02 5.000000e+00 0.000000e+00 0.000000e+00 1.601700e-01 -2.452404e-07 -0.000000e+00 1.320808e-02 -0.000000e+00 -0.000000e+00 -0.000000e+00 
-1.000000e+02 5.000000e+00 0.000000e+00 0.000000e+00 1.583463e-01 -2.967408e-07 0.000000e+00 1.310962e-02 0.000000e+00 -0.000000e+00 -0.000000e+00 
-9.000000e+01 5.000000e+00 0.000000e+00 0.000000e+00 1.552359e-01 -3.663467e-07 0.000000e+00 1.297349e-02 0.000000e+00 -0.000000e+00 -0.000000e+00 
-8.000000e+01 5.000000e+00 0.000000e+00 0.000000e+00 1.520041e-01 -4.636575e-07 0.000000e+00 1.282927e-02 0.000000e+00 -0.000000e+00 -0.000000e+00 
-7.000000e+01 5.000000e+00 0.000000e+00 0.000000e+00 1.475023e-01 -6.055935e-07 0.000000e+00 1.262919e-02 0.000000e+00 -0.000000e+00 -0.000000e+00 
-6.000000e+01 5.000000e+00 0.000000e+00 0.000000e+00 1.416786e-01 -8.242801e-07 0.000000e+00 1.236052e-02 -0.000000e+00 -0.000000e+00 -0.000000e+00 
-5.000000e+01 5.000000e+00 0.000000e+00 0.000000e+00 1.328471e-01 -1.186963e-06 0.000000e+00 1.191866e-02 0.000000e+00 -0.000000e+00 -0.000000e+00 
-4.000000e+01 5.000000e+00 0.000000e+00 0.000000e+00 1.176751e-01 -1.854630e-06 -0.000000e+00 1.107841e-02 0.000000e+00 -0.000000e+00 -0.000000e+00 
-2.600000e+02 1.000000e+01 0.000000e+00 0.000000e+00 1.740839e-01 -1.688330e-07 0.000000e+00 2.066707e-02 -0.000000e+00 -0.000000e+00 -0.000000e+00 
-2.500000e+02 1.000000e+01 0.000000e+00 0.000000e+00 1.741174e-01 -1.826097e-07 -0.000000e+00 1.968880e-02 -0.000000e+00 -0.000000e+00 -0.000000e+00 
-2.400000e+02 1.000000e+01 0.000000e+00 0.000000e+00 1.729363e-01 -1.981442e-07 0.000000e+00 1.853364e-02 0.000000e+00 -0.000000e+00 -0.000000e+00 
-2.300000e+02 1.000000e+01 0.000000e+00 0.000000e+00 1.713956e-01 -2.157487e-07 0.000000e+00 1.735162e-02 -0.000000e+00 -0.000000e+00 -0.000000e+00 
-2.200000e+02 1.000000e+01 0.000000e+00 0.000000e+00 1.700406e-01 -2.358080e-07 0.000000e+00 1.626733e-02 -0.000000e+00 -0.000000e+00 -0.000000e+00 
-2.100000e+02 1.000000e+01 0.000000e+00 0.000000e+00 1.676837e-01 -2.588006e-07 0.000000e+00 1.528455e-02 -0.000000e+00 -0.000000e+00 -0.000000e+00 
-2.000000e+02 1.000000e+01 0.000000e+00 0.000000e+00 1.656059e-01 -2.853277e-07 0.000000e+00 1.455256e-02 0.000000e+00 -0.000000e+00 -0.000000e+00 
-1.900000e+02 1.000000e+01 0.000000e+00 0.000000e+00 1.635914e-01 -3.161526e-07 0.000000e+00 1.406024e-02 0.000000e+00 -0.000000e+00 -0.000000e+00 
-1.800000e+02 1.000000e+01 0.000000e+00 0.000000e+00 1.616829e-01 -3.522564e-07 0.000000e+00 1.375561e-02 0.000000e+00 -0.000000e+00 -0.000000e+00 
-1.700000e+02 1.000000e+01 0.000000e+00 0.000000e+00 1.589847e-01 -3.949173e-07 0.000000e+00 1.352704e-02 -0.000000e+00 -0.000000e+00 -0.000000e+00 
-1.600000e+02 1.000000e+01 0.000000e+00 0.000000e+00 1.567649e-01 -4.458246e-07 0.000000e+00 1.336286e-02 -0.000000e+00 -0.000000e+00 -0.000000e+00 
-1.500000e+02 1.000000e+01 0.000000e+00 0.000000e+00 1.540920e-01 -5.072493e-07 0.000000e+00 1.319875e-02 0.000000e+00 -0.000000e+00 -0.000000e+00 
-1.400000e+02 1.000000e+01 0.000000e+00 0.000000e+00 1.513482e-01 -5.823015e-07 0.000000e+00 1.303765e-02 -0.000000e+00 -0.000000e+00 -0.000000e+00 
-1.300000e+02 1.000000e+01 0.000000e+00 0.000000e+00 1.478934e-01 -6.753319e-07 0.000000e+00 1.284998e-02 -0.000000e+00 -0.000000e+00 -0.000000e+00 
-1.200000e+02 1.000000e+01 0.000000e+00 0.000000e+00 1.447701e-01 -7.925770e-07 0.000000e+00 1.267600e-02 -0.000000e+00 -0.000000e+00 -0.000000e+00 
-1.100000e+02 1.000000e+01 0.000000e+00 0.000000e+00 1.399103e-01 -9.432321e-07 0.000000e+00 1.242185e-02 0.000000e+00 -0.000000e+00 -0.000000e+00 
-1.000000e+02 1.000000e+01 0.000000e+00 0.000000e+00 1.343456e-01 -1.141311e-06 0.000000e+00 1.212644e-02 -0.000000e+00 -0.000000e+00 -0.000000e+00 
-9.000000e+01 1.000000e+01 0.000000e+00 0.000000e+00 1.277740e-01 -1.409026e-06 0.000000e+00 1.176652e-02 0.000000e+00 -0.000000e+00 -0.000000e+00 
-8.000000e+01 1.000000e+01 0.000000e+00 0.000000e+00 1.197162e-01 -1.783298e-06 0.000000e+00 1.130240e-02 -0.000000e+00 -0.000000e+00 -0.000000e+00 
-7.000000e+01 1.000000e+01 0.000000e+00 0.000000e+00 1.084373e-01 -2.329206e-06 -0.000000e+00 1.060922e-02 0.000000e+00 -0.000000e+00 -0.000000e+00 
-6.000000e+01 1.000000e+01 0.000000e+00 0.000000e+00 9.089184e-02 -3.170308e-06 0.000000e+00 9.413696e-03 0.000000e+00 -0.000000e+00 -0.000000e+00 
-5.000000e+01 1.000000e+01 0.000000e+00 0.000000e+00 6.491582e-02 -4.565243e-06 0.000000e+00 7.366307e-03 0.000000e+00 -0.000000e+00 -0.000000e+00 
-4.000000e+01 1.000000e+01 0.000000e+00 0.000000e+00 2.222575e-02 -7.133193e-06 -0.000000e+00 3.267100e-03 -0.000000e+00 -0.000000e+00 -0.000000e+00 
-2.600000e+02 1.500000e+01 0.000000e+00 0.000000e+00 1.672156e-01 -3.815625e-07 0.000000e+00 1.990017e-02 -0.000000e+00 -0.000000e+00 -0.000000e+00 
-2.500000e+02 1.500000e+01 0.000000e+00 0.000000e+00 1.660020e-01 -4.126980e-07 0.000000e+00 1.883550e-02 0.000000e+00 -0.000000e+00 -0.000000e+00 
-2.400000e+02 1.500000e+01 0.000000e+00 0.000000e+00 1.645762e-01 -4.478060e-07 0.000000e+00 1.772959e-02 -0.000000e+00 -0.000000e+00 -0.000000e+00 
-2.300000e+02 1.500000e+01 0.000000e+00 0.000000e+00 1.625889e-01 -4.875922e-07 0.000000e+00 1.660616e-02 0.000000e+00 -0.000000e+00 -0.000000e+00 
-2.200000e+02 1.500000e+01 0.000000e+00 0.000000e+00 1.599815e-01 -5.329261e-07 0.000000e+00 1.554203e-02 0.000000e+00 -0.000000e+00 -0.000000e+00 
-2.100000e+02 1.500000e+01 0.000000e+00 0.000000e+00 1.574663e-01 -5.848895e-07 0.000000e+00 1.467051e-02 0.000000e+00 -0.000000e+00 -0.000000e+00 
-2.000000e+02 1.500000e+01 0.000000e+00 0.000000e+00 1.542559e-01 -6.448406e-07 0.000000e+00 1.397292e-02 0.000000e+00 -0.000000e+00 -0.000000e+00 
-1.900000e+02 1.500000e+01 0.000000e+00 0.000000e+00 1.512460e-01 -7.145049e-07 -0.000000e+00 1.349691e-02 -0.000000e+00 -0.000000e+00 -0.000000e+00 
-1.800000e+02 1.500000e+01 0.000000e+00 0.000000e+00 1.484758e-01 -7.960996e-07 0.000000e+00 1.318231e-02 -0.000000e+00 -0.000000e+00 -0.000000e+00 
-1.700000e+02 1.500000e+01 0.000000e+00 0.000000e+00 1.447399e-01 -8.925130e-07 0.000000e+00 1.290899e-02 -0.000000e+00 -0.000000e+00 -0.000000e+00 
-1.600000e+02 1.500000e+01 0.000000e+00 0.000000e+00 1.411400e-01 -1.007563e-06 0.000000e+00 1.267531e-02 0.000000e+00 -0.000000e+00 -0.000000e+00 
-1.500000e+02 1.500000e+01 0.000000e+00 0.000000e+00 1.371279e-01 -1.146383e-06 0.000000e+00 1.242745e-02 -0.000000e+00 -0.000000e+00 -0.000000e+00 
-1.400000e+02 1.500000e+01 0.000000e+00 0.000000e+00 1.325478e-01 -1.316001e-06 -0.000000e+00 1.215072e-02 0.000000e+00 -0.000000e+00 -0.000000e+00 
-1.300000e+02 1.500000e+01 0.000000e+00 0.000000e+00 1.272467e-01 -1.526250e-06 -0.000000e+00 1.183076e-02 0.000000e+00 -0.000000e+00 -0.000000e+00 
-1.200000e+02 1.500000e+01 0.000000e+00 0.000000e+00 1.206589e-01 -1.791224e-06 0.000000e+00 1.142831e-02 0.000000e+00 -0.000000e+00 -0.000000e+00 
-1.100000e+02 1.500000e+01 0.000000e+00 0.000000e+00 1.135104e-01 -2.131705e-06 0.000000e+00 1.097633e-02 -0.000000e+00 -0.000000e+00 -0.000000e+00 
-1.000000e+02 1.500000e+01 0.000000e+00 0.000000e+00 1.039728e-01 -2.579363e-06 -0.000000e+00 1.034630e-02 0.000000e+00 -0.000000e+00 -0.000000e+00 
-9.000000e+01 1.500000e+01 0.000000e+00 0.000000e+00 9.120630e-02 -3.184398e-06 0.000000e+00 9.445816e-03 -0.000000e+00 -0.000000e+00 -0.000000e+00 
-8.000000e+01 1.500000e+01 0.000000e+00 0.000000e+00 7.551121e-02 -4.030254e-06 0.000000e+00 8.231106e-03 0.000000e+00 -0.000000e+00 -0.000000e+00 
-7.000000e+01 1.500000e+01 0.000000e+00 0.000000e+00 5.329434e-02 -5.264005e-06 -0.000000e+00 6.308716e-03 0.000000e+00 -0.000000e+00 -0.000000e+00 
-6.000000e+01 1.500000e+01 0.000000e+00 0.000000e+00 2.194834e-02 -7.164896e-06 -0.000000e+00 3.182225e-03 -0.000000e+00 -0.000000e+00 -0.000000e+00 
-5.000000e+01 1.500000e+01 0.000000e+00 0.000000e+00 -2.651193e-02 -1.031745e-05 -0.000000e+00 -2.644279e-03 0.000000e+00 -0.000000e+00 -0.000000e+00 
-4.000000e+01 1.500000e+01 0.000000e+00 0.000000e+00 -1.081940e-01 -1.612102e-05 0.000000e+00 -1.519405e-02 -0.000000e+00 -0.000000e+00 -0.000000e+00 
-2.600000e+02 2.000000e+01 0.000000e+00 0.000000e+00 1.587241e-01 -6.753319e-07 -0.000000e+00 1.895688e-02 -0.000000e+00 -0.000000e+00 -0.000000e+00 
-2.500000e+02 2.000000e+01 0.000000e+00 0.000000e+00 1.567453e-01 -7.304390e-07 -0.000000e+00 1.787389e-02 -0.000000e+00 -0.000000e+00 -0.000000e+00 
-2.400000e+02 2.000000e+01 0.000000e+00 0.000000e+00 1.541195e-01 -7.925770e-07 0.000000e+00 1.673835e-02 -0.000000e+00 -0.000000e+00 -0.000000e+00 
-2.300000e+02 2.000000e+01 0.000000e+00 0.000000e+00 1.516671e-01 -8.629950e-07 0.000000e+00 1.569138e-02 0.000000e+00 -0.000000e+00 -0.000000e+00 
-2.200000e+02 2.000000e+01 0.000000e+00 0.000000e+00 1.480556e-01 -9.432321e-07 -0.000000e+00 1.467795e-02 -0.000000e+00 -0.000000e+00 -0.000000e+00 
-2.100000e+02 2.000000e+01 0.000000e+00 0.000000e+00 1.445480e-01 -1.035203e-06 0.000000e+00 1.386515e-02 0.000000e+00 -0.000000e+00 -0.000000e+00 
-2.000000e+02 2.000000e+01 0.000000e+00 0.000000e+00 1.413754e-01 -1.141311e-06 0.000000e+00 1.325938e-02 0.000000e+00 -0.000000e+00 -0.000000e+00 
-1.900000e+02 2.000000e+01 0.000000e+00 0.000000e+00 1.368260e-01 -1.264610e-06 0.000000e+00 1.274620e-02 -0.000000e+00 -0.000000e+00 -0.000000e+00 
-1.800000e+02 2.000000e+01 0.000000e+00 0.000000e+00 1.326049e-01 -1.409026e-06 -0.000000e+00 1.236376e-02 -0.000000e+00 -0.000000e+00 -0.000000e+00 
-1.700000e+02 2.000000e+01 0.000000e+00 0.000000e+00 1.282261e-01 -1.579669e-06 -0.000000e+00 1.204438e-02 0.000000e+00 -0.000000e+00 -0.000000e+00 
-1.600000e+02 2.000000e+01 0.000000e+00 0.000000e+00 1.231189e-01 -1.783298e-06 0.000000e+00 1.170439e-02 0.000000e+00 -0.000000e+00 -0.000000e+00 
-1.500000e+02 2.000000e+01 0.000000e+00 0.000000e+00 1.171146e-01 -2.028997e-06 0.000000e+00 1.130630e-02 -0.000000e+00 -0.000000e+00 -0.000000e+00 
-1.400000e+02 2.000000e+01 0.000000e+00 0.000000e+00 1.099414e-01 -2.329206e-06 -0.000000e+00 1.082496e-02 -0.000000e+00 -0.000000e+00 -0.000000e+00 
-1.300000e+02 2.000000e+01 0.000000e+00 0.000000e+00 1.019878e-01 -2.701327e-06 0.000000e+00 1.027488e-02 0.000000e+00 -0.000000e+00 -0.000000e+00 
-1.200000e+02 2.000000e+01 0.000000e+00 0.000000e+00 9.232073e-02 -3.170308e-06 0.000000e+00 9.577207e-03 -0.000000e+00 -0.000000e+00 -0.000000e+00 
-1.100000e+02 2.000000e+01 0.000000e+00 0.000000e+00 8.042736e-02 -3.772928e-06 0.000000e+00 8.667078e-03 0.000000e+00 -0.000000e+00 -0.000000e+00 
-1.000000e+02 2.000000e+01 0.000000e+00 0.000000e+00 6.563575e-02 -4.565243e-06 0.000000e+00 7.448137e-03 -0.000000e+00 -0.000000e+00 -0.000000e+00 
-9.000000e+01 2.000000e+01 0.000000e+00 0.000000e+00 4.695102e-02 -5.636103e-06 0.000000e+00 5.761645e-03 0.000000e+00 -0.000000e+00 -0.000000e+00 
-8.000000e+01 2.000000e+01 0.000000e+00 0.000000e+00 2.285822e-02 -7.133193e-06 0.000000e+00 3.336019e-03 -0.000000e+00 -0.000000e+00 -0.000000e+00 
-7.000000e+01 2.000000e+01 0.000000e+00 0.000000e+00 -1.130162e-02 -9.316823e-06 0.000000e+00 -5.983148e-04 0.000000e+00 -0.000000e+00 -0.000000e+00 
-6.000000e+01 2.000000e+01 0.000000e+00 0.000000e+00 -6.193247e-02 -1.268123e-05 0.000000e+00 -7.512395e-03 -0.000000e+00 -0.000000e+00 -0.000000e+00 
-5.000000e+01 2.000000e+01 0.000000e+00 0.000000e+00 -1.360193e-01 -1.826097e-05 -0.000000e+00 -2.001593e-02 -0.000000e+00 -0.000000e+00 -0.000000e+00 
-4.000000e+01 2.000000e+01 0.000000e+00 0.000000e+00 -2.347819e-01 -2.853277e-05 0.000000e+00 -4.304164e-02 -0.000000e+00 -0.000000e+00 -0.000000e+00 
-2.600000e+02 2.500000e+01 0.000000e+00 0.000000e+00 1.484356e-01 -1.056894e-06 -0.000000e+00 1.780746e-02 0.000000e+00 -0.000000e+00 -0.000000e+00 
-2.500000e+02 2.500000e+01 0.000000e+00 0.000000e+00 1.454778e-01 -1.143137e-06 0.000000e+00 1.670310e-02 -0.000000e+00 -0.000000e+00 -0.000000e+00 
-2.400000e+02 2.500000e+01 0.000000e+00 0.000000e+00 1.422749e-01 -1.240383e-06 0.000000e+00 1.562174e-02 -0.000000e+00 -0.000000e+00 -0.000000e+00 
-2.300000e+02 2.500000e+01 0.000000e+00 0.000000e+00 1.389778e-01 -1.350587e-06 -0.000000e+00 1.462599e-02 0.000000e+00 -0.000000e+00 -0.000000e+00 
-2.200000e+02 2.500000e+01 0.000000e+00 0.000000e+00 1.347153e-01 -1.476158e-06 0.000000e+00 1.369510e-02 0.000000e+00 -0.000000e+00 -0.000000e+00 
-2.100000e+02 2.500000e+01 0.000000e+00 0.000000e+00 1.305985e-01 -1.620092e-06 -0.000000e+00 1.295599e-02 0.000000e+00 -0.000000e+00 -0.000000e+00 
-2.000000e+02 2.500000e+01 0.000000e+00 0.000000e+00 1.257131e-01 -1.786152e-06 -0.000000e+00 1.231778e-02 0.000000e+00 -0.000000e+00 -0.000000e+00 
-1.900000e+02 2.500000e+01 0.000000e+00 0.000000e+00 1.206840e-01 -1.979115e-06 -0.000000e+00 1.179659e-02 0.000000e+00 -0.000000e+00 -0.000000e+00 
-1.800000e+02 2.500000e+01 0.000000e+00 0.000000e+00 1.147317e-01 -2.205125e-06 0.000000e+00 1.128881e-02 -0.000000e+00 -0.000000e+00 -0.000000e+00 
-1.700000e+02 2.500000e+01 0.000000e+00 0.000000e+00 1.089305e-01 -2.472182e-06 0.000000e+00 1.084994e-02 0.000000e+00 -0.000000e+00 -0.000000e+00 
-1.600000e+02 2.500000e+01 0.000000e+00 0.000000e+00 1.016773e-01 -2.790862e-06 -0.000000e+00 1.032250e-02 -0.000000e+00 -0.000000e+00 -0.000000e+00 
-1.500000e+02 2.500000e+01 0.000000e+00 0.000000e+00 9.352735e-02 -3.175380e-06 0.000000e+00 9.710769e-03 0.000000e+00 -0.000000e+00 -0.000000e+00 
-1.400000e+02 2.500000e+01 0.000000e+00 0.000000e+00 8.392288e-02 -3.645207e-06 -0.000000e+00 8.966360e-03 0.000000e+00 -0.000000e+00 -0.000000e+00 
-1.300000e+02 2.500000e+01 0.000000e+00 0.000000e+00 7.317343e-02 -4.227578e-06 0.000000e+00 8.093460e-03 0.000000e+00 -0.000000e+00 -0.000000e+00 
-1.200000e+02 2.500000e+01 0.000000e+00 0.000000e+00 5.920133e-02 -4.961532e-06 0.000000e+00 6.884539e-03 -0.000000e+00 -0.000000e+00 -0.000000e+00 
-1.100000e+02 2.500000e+01 0.000000e+00 0.000000e+00 4.300017e-02 -5.904633e-06 -0.000000e+00 5.372597e-03 0.000000e+00 -0.000000e+00 -0.000000e+00 
-1.000000e+02 2.500000e+01 0.000000e+00 0.000000e+00 2.222003e-02 -7.144606e-06 0.000000e+00 3.246553e-03 -0.000000e+00 -0.000000e+00 -0.000000e+00 
-9.000000e+01 2.500000e+01 0.000000e+00 0.000000e+00 -4.238082e-03 -8.820501e-06 0.000000e+00 2.339033e-04 0.000000e+00 -0.000000e+00 -0.000000e+00 
-8.000000e+01 2.500000e+01 0.000000e+00 0.000000e+00 -3.958135e-02 -1.116345e-05 -0.000000e+00 -4.340024e-03 -0.000000e+00 -0.000000e+00 -0.000000e+00 
-7.000000e+01 2.500000e+01 0.000000e+00 0.000000e+00 -8.799284e-02 -1.458083e-05 -0.000000e+00 -1.163411e-02 -0.000000e+00 -0.000000e+00 -0.000000e+00 
-6.000000e+01 2.500000e+01 0.000000e+00 0.000000e+00 -1.554686e-01 -1.984613e-05 0.000000e+00 -2.389729e-02 0.000000e+00 -0.000000e+00 -0.000000e+00 
-5.000000e+01 2.500000e+01 0.000000e+00 0.000000e+00 -2.329827e-01 -2.857842e-05 -0.000000e+00 -4.280751e-02 -0.000000e+00 -0.000000e+00 -0.000000e+00 
-4.000000e+01 2.500000e+01 0.000000e+00 0.000000e+00 -2.788845e-01 -4.465379e-05 -0.000000e+00 -6.116298e-02 -0.000000e+00 -0.000000e+00 -0.000000e+00 
-2.600000e+02 3.000000e+01 0.000000e+00 0.000000e+00 1.371080e-01 -1.519497e-06 0.000000e+00 1.655863e-02 -0.000000e+00 -0.000000e+00 -0.000000e+00 
-2.500000e+02 3.000000e+01 0.000000e+00 0.000000e+00 1.336135e-01 -1.643488e-06 0.000000e+00 1.549886e-02 0.000000e+00 -0.000000e+00 -0.000000e+00 
-2.400000e+02 3.000000e+01 0.000000e+00 0.000000e+00 1.291875e-01 -1.783298e-06 0.000000e+00 1.441350e-02 -0.000000e+00 -0.000000e+00 -0.000000e+00 
-2.300000e+02 3.000000e+01 0.000000e+00 0.000000e+00 1.250688e-01 -1.941739e-06 -0.000000e+00 1.347208e-02 -0.000000e+00 -0.000000e+00 -0.000000e+00 
-2.200000e+02 3.000000e+01 0.000000e+00 0.000000e+00 1.201830e-01 -2.122272e-06 0.000000e+00 1.261531e-02 0.000000e+00 -0.000000e+00 -0.000000e+00 
-2.100000e+02 3.000000e+01 0.000000e+00 0.000000e+00 1.145894e-01 -2.329206e-06 -0.000000e+00 1.187506e-02 -0.000000e+00 -0.000000e+00 -0.000000e+00 
-2.000000e+02 3.000000e+01 0.000000e+00 0.000000e+00 1.083759e-01 -2.567949e-06 0.000000e+00 1.119283e-02 -0.000000e+00 -0.000000e+00 -0.000000e+00 
-1.900000e+02 3.000000e+01 0.000000e+00 0.000000e+00 1.019208e-01 -2.845373e-06 0.000000e+00 1.056705e-02 -0.000000e+00 -0.000000e+00 -0.000000e+00 
-1.800000e+02 3.000000e+01 0.000000e+00 0.000000e+00 9.512444e-02 -3.170308e-06 -0.000000e+00 9.948443e-03 -0.000000e+00 -0.000000e+00 -0.000000e+00 
-1.700000e+02 3.000000e+01 0.000000e+00 0.000000e+00 8.682716e-02 -3.554255e-06 -0.000000e+00 9.273582e-03 0.000000e+00 -0.000000e+00 -0.000000e+00 
-1.600000e+02 3.000000e+01 0.000000e+00 0.000000e+00 7.786976e-02 -4.012421e-06 -0.000000e+00 8.540149e-03 -0.000000e+00 -0.000000e+00 -0.000000e+00 
-1.500000e+02 3.000000e+01 0.000000e+00 0.000000e+00 6.749811e-02 -4.565243e-06 0.000000e+00 7.650333e-03 -0.000000e+00 -0.000000e+00 -0.000000e+00 
-1.400000e+02 3.000000e+01 0.000000e+00 0.000000e+00 5.474425e-02 -5.240713e-06 0.000000e+00 6.506611e-03 0.000000e+00 -0.000000e+00 -0.000000e+00 
-1.300000e+02 3.000000e+01 0.000000e+00 0.000000e+00 4.037054e-02 -6.077987e-06 0.000000e+00 5.137525e-03 0.000000e+00 -0.000000e+00 -0.000000e+00 
-1.200000e+02 3.000000e+01 0.000000e+00 0.000000e+00 2.252397e-02 -7.133193e-06 0.000000e+00 3.303272e-03 -0.000000e+00 -0.000000e+00 -0.000000e+00 
-1.100000e+02 3.000000e+01 0.000000e+00 0.000000e+00 9.762193e-04 -8.489089e-06 0.000000e+00 8.840970e-04 0.000000e+00 -0.000000e+00 -0.000000e+00 
-1.000000e+02 3.000000e+01 0.000000e+00 0.000000e+00 -2.704595e-02 -1.027180e-05 -0.000000e+00 -2.603621e-03 0.000000e+00 -0.000000e+00 -0.000000e+00 
-9.000000e+01 3.000000e+01 0.000000e+00 0.000000e+00 -6.186317e-02 -1.268123e-05 -0.000000e+00 -7.484702e-03 -0.000000e+00 -0.000000e+00 -0.000000e+00 
-8.000000e+01 3.000000e+01 0.000000e+00 0.000000e+00 -1.088176e-01 -1.604968e-05 0.000000e+00 -1.504518e-02 -0.000000e+00 -0.000000e+00 -0.000000e+00 
-7.000000e+01 3.000000e+01 0.000000e+00 0.000000e+00 -1.699478e-01 -2.096285e-05 0.000000e+00 -2.671688e-02 0.000000e+00 -0.000000e+00 -0.000000e+00 
-6.000000e+01 3.000000e+01 0.000000e+00 0.000000e+00 -2.357467e-01 -2.853277e-05 0.000000e+00 -4.326626e-02 -0.000000e+00 -0.000000e+00 -0.000000e+00 
-5.000000e+01 3.000000e+01 0.000000e+00 0.000000e+00 -2.701972e-01 -4.108719e-05 -0.000000e+00 -5.796195e-02 -0.000000e+00 -0.000000e+00 -0.000000e+00 
-4.000000e+01 3.000000e+01 0.000000e+00 0.000000e+00 -3.316761e-01 -6.419874e-05 0.000000e+00 -7.688382e-02 -0.000000e+00 -0.000000e+00 -0.000000e+00 
-2.600000e+02 3.500000e+01 0.000000e+00 0.000000e+00 1.236804e-01 -2.069892e-06 -0.000000e+00 1.510683e-02 0.000000e+00 -0.000000e+00 -0.000000e+00 
-2.500000e+02 3.500000e+01 0.000000e+00 0.000000e+00 1.196421e-01 -2.238795e-06 0.000000e+00 1.410601e-02 0.000000e+00 -0.000000e+00 -0.000000e+00 
-2.400000e+02 3.500000e+01 0.000000e+00 0.000000e+00 1.147446e-01 -2.429248e-06 0.000000e+00 1.310013e-02 -0.000000e+00 -0.000000e+00 -0.000000e+00 
-2.300000e+02 3.500000e+01 0.000000e+00 0.000000e+00 1.094102e-01 -2.645080e-06 -0.000000e+00 1.217654e-02 0.000000e+00 -0.000000e+00 -0.000000e+00 
-2.200000e+02 3.500000e+01 0.000000e+00 0.000000e+00 1.030589e-01 -2.891006e-06 -0.000000e+00 1.132046e-02 0.000000e+00 -0.000000e+00 -0.000000e+00 
-2.100000e+02 3.500000e+01 0.000000e+00 0.000000e+00 9.659452e-02 -3.172896e-06 0.000000e+00 1.059394e-02 0.000000e+00 -0.000000e+00 -0.000000e+00 
-2.000000e+02 3.500000e+01 0.000000e+00 0.000000e+00 8.970577e-02 -3.498118e-06 0.000000e+00 9.875210e-03 -0.000000e+00 -0.000000e+00 -0.000000e+00 
-1.900000e+02 3.500000e+01 0.000000e+00 0.000000e+00 8.156759e-02 -3.876031e-06 -0.000000e+00 9.070255e-03 0.000000e+00 -0.000000e+00 -0.000000e+00 
-1.800000e+02 3.500000e+01 0.000000e+00 0.000000e+00 7.267030e-02 -4.318664e-06 -0.000000e+00 8.200505e-03 -0.000000e+00 -0.000000e+00 -0.000000e+00 
-1.700000e+02 3.500000e+01 0.000000e+00 0.000000e+00 6.279849e-02 -4.841686e-06 0.000000e+00 7.299566e-03 -0.000000e+00 -0.000000e+00 -0.000000e+00 
-1.600000e+02 3.500000e+01 0.000000e+00 0.000000e+00 5.125088e-02 -5.465809e-06 -0.000000e+00 6.225153e-03 0.000000e+00 -0.000000e+00 -0.000000e+00 
-1.500000e+02 3.500000e+01 0.000000e+00 0.000000e+00 3.795396e-02 -6.218876e-06 0.000000e+00 4.908131e-03 0.000000e+00 -0.000000e+00 -0.000000e+00 
-1.400000e+02 3.500000e+01 0.000000e+00 0.000000e+00 2.245845e-02 -7.139016e-06 -0.000000e+00 3.290458e-03 0.000000e+00 -0.000000e+00 -0.000000e+00 
-1.300000e+02 3.500000e+01 0.000000e+00 0.000000e+00 3.605418e-03 -8.279569e-06 0.000000e+00 1.182984e-03 0.000000e+00 -0.000000e+00 -0.000000e+00 
-1.200000e+02 3.500000e+01 0.000000e+00 0.000000e+00 -1.840816e-02 -9.716994e-06 0.000000e+00 -1.500651e-03 0.000000e+00 -0.000000e+00 -0.000000e+00 
-1.100000e+02 3.500000e+01 0.000000e+00 0.000000e+00 -4.640629e-02 -1.156403e-05 0.000000e+00 -5.256342e-03 0.000000e+00 -0.000000e+00 -0.000000e+00 
-1.000000e+02 3.500000e+01 0.000000e+00 0.000000e+00 -8.122446e-02 -1.399247e-05 -0.000000e+00 -1.047763e-02 0.000000e+00 -0.000000e+00 -0.000000e+00 
-9.000000e+01 3.500000e+01 0.000000e+00 0.000000e+00 -1.254342e-01 -1.727466e-05 -0.000000e+00 -1.801428e-02 0.000000e+00 -0.000000e+00 -0.000000e+00 
-8.000000e+01 3.500000e+01 0.000000e+00 0.000000e+00 -1.803705e-01 -2.186324e-05 0.000000e+00 -2.897797e-02 -0.000000e+00 -0.000000e+00 -0.000000e+00 
-7.000000e+01 3.500000e+01 0.000000e+00 0.000000e+00 -2.345689e-01 -2.855606e-05 -0.000000e+00 -4.303432e-02 -0.000000e+00 -0.000000e+00 -0.000000e+00 
-6.000000e+01 3.500000e+01 0.000000e+00 0.000000e+00 -2.651902e-01 -3.886798e-05 0.000000e+00 -5.578555e-02 -0.000000e+00 -0.000000e+00 -0.000000e+00 
-5.000000e+01 3.500000e+01 0.000000e+00 0.000000e+00 -3.086671e-01 -5.596988e-05 0.000000e+00 -7.060702e-02 -0.000000e+00 -0.000000e+00 -0.000000e+00 
-4.000000e+01 3.500000e+01 0.000000e+00 0.000000e+00 -4.046225e-01 -8.745295e-05 0.000000e+00 -9.291407e-02 -0.000000e+00 -0.000000e+00 -0.000000e+00 
-2.600000e+02 4.000000e+01 0.000000e+00 0.000000e+00 1.102412e-01 -2.701327e-06 0.000000e+00 1.368275e-02 0.000000e+00 -0.000000e+00 -0.000000e+00 
-2.500000e+02 4.000000e+01 0.000000e+00 0.000000e+00 1.050055e-01 -2.921756e-06 0.000000e+00 1.267246e-02 -0.000000e+00 -0.000000e+00 -0.000000e+00 
-2.400000e+02 4.000000e+01 0.000000e+00 0.000000e+00 9.889442e-02 -3.170308e-06 0.000000e+00 1.167962e-02 0.000000e+00 -0.000000e+00 -0.000000e+00 
-2.300000e+02 4.000000e+01 0.000000e+00 0.000000e+00 9.232265e-02 -3.451980e-06 0.000000e+00 1.077081e-02 0.000000e+00 -0.000000e+00 -0.000000e+00 
-2.200000e+02 4.000000e+01 0.000000e+00 0.000000e+00 8.534173e-02 -3.772928e-06 0.000000e+00 9.959652e-03 -0.000000e+00 -0.000000e+00 -0.000000e+00 
-2.100000e+02 4.000000e+01 0.000000e+00 0.000000e+00 7.713819e-02 -4.140810e-06 0.000000e+00 9.145854e-03 0.000000e+00 -0.000000e+00 -0.000000e+00 
-2.000000e+02 4.000000e+01 0.000000e+00 0.000000e+00 6.864784e-02 -4.565243e-06 0.000000e+00 8.264604e-03 -0.000000e+00 -0.000000e+00 -0.000000e+00 
-1.900000e+02 4.000000e+01 0.000000e+00 0.000000e+00 5.924200e-02 -5.058442e-06 0.000000e+00 7.244799e-03 -0.000000e+00 -0.000000e+00 -0.000000e+00 
-1.800000e+02 4.000000e+01 0.000000e+00 0.000000e+00 4.866368e-02 -5.636103e-06 0.000000e+00 6.102240e-03 0.000000e+00 -0.000000e+00 -0.000000e+00 
-1.700000e+02 4.000000e+01 0.000000e+00 0.000000e+00 3.610921e-02 -6.318676e-06 -0.000000e+00 4.823021e-03 -0.000000e+00 -0.000000e+00 -0.000000e+00 
-1.600000e+02 4.000000e+01 0.000000e+00 0.000000e+00 2.239446e-02 -7.133193e-06 -0.000000e+00 3.366623e-03 0.000000e+00 -0.000000e+00 -0.000000e+00 
-1.500000e+02 4.000000e+01 0.000000e+00 0.000000e+00 6.630360e-03 -8.115988e-06 -0.000000e+00 1.572253e-03 -0.000000e+00 -0.000000e+00 -0.000000e+00 
-1.400000e+02 4.000000e+01 0.000000e+00 0.000000e+00 -1.293571e-02 -9.316823e-06 -0.000000e+00 -7.823961e-04 0.000000e+00 -0.000000e+00 -0.000000e+00 