--- KiteAeroDyn v1.00.* PRIMARY INPUT FILE ---
Sample KiteAeroDyn primary input file
--- INPUT CONFIGURATION ---
False              Echo               Echo input data to <RootName>.ech? (flag)
1.0                DTAero             Time interval for aerodynamic calculations (s) [>0.0]
"KiteAeroDyn.inp"  KAD_InFile         Name of the primary KiteAeroDyn input file (string)
--- ENERGY KITE REFERENCE CONFIGURATION ---
3                  NumFlaps           Number of flaps  per wing (-) [>=1]
2                  NumPylons          Number of pylons per wing (-) [>=1]
KiteX   KiteY   KiteZ
(m)     (m)     (m)
                        Starboard wing
                        Port      wing
                        Vertical stabilizer
                        Starboard horizontal stabilizer
                        Port      horizontal stabilizer
                        Pylon on starboard wing 1 [1 to NumPylons rows]
                        Pylon on starboard wing 2
                        Pylon on port      wing 1 [1 to NumPylons rows]
                        Pylon on port      wing 2
                        Top    rotor on starboard-wing pylon 1 [2 to 2*NumPylons rows]
                        Bottom rotor on starboard-wing pylon 1
                        Top    rotor on starboard-wing pylon 2
                        Bottom rotor on starboard-wing pylon 2
                        Top    rotor on port     -wing pylon 1 [2 to 2*NumPylons rows]
                        Bottom rotor on port     -wing pylon 1
                        Top    rotor on port     -wing pylon 2
                        Bottom rotor on port     -wing pylon 2
--- I/O SETTINGS ---
""                 OutFileRoot        Root name for any output files (sring) [use "" for .dvr rootname]
True               TabDel             Make output tab-delimited? (fixed-width otherwise) (flag)
"ES10.3E2"         OutFmt             Format used for text tabular output, excluding the time channel.  Resulting field should be 10 characters. (quoted string)
True               Beep               Beep on exit? (flag)
--- WIND AND ENERGY KITE TIME-HISTORY MOTION ---
15.0               HWindSpd           Horizontal wind speed (m/s) [>=0.0]
0.0                HWindDir           Horizontal wind propagation direction (meteoroligical rotation from aligned with X (positive rotates towards -Y)) (deg)
300.0              RefHt              Reference height for horizontal wind speed (m) [>0.0]
0.1                PLexp              Vertical wind shear power-law exponent (-)
11                 NumTimes           Number of time stamps (-) [>=2]
Time   KitePxi   KitePyi   KitePzi   KiteRoll   KitePitch   KiteYaw   KiteTVxi   KiteTVyi   KiteTVzi   KiteRVxi   KiteRVyi   KiteRVzi   SP1TRtSpd   SP1BRtSpd   SP2TRtSpd   SP2BRtSpd   PP1TRtSpd   PP1BRtSpd   PP2TRtSpd   PP2BRtSpd   SP1TPitch   SP1BPitch   SP2TPitch   SP2BPitch   PP1TPitch   PP1BPitch   PP2TPitch   PP2BPitch   SFlp1Ctrl   SFlp2Ctrl   SFlp3Ctrl   PFlp1Ctrl   PFlp2Ctrl   PFlp3Ctrl   Rudr1Ctrl   Rudr2Ctrl   SElv1Ctrl   SElv2Ctrl   PElv1Ctrl   PElv2Ctrl
(s)    (m)       (m)       (m)       (deg)      (deg)       (deg)     (m/s)      (m/s)      (m/s)      (deg/s)    (deg/s)    (deg/s)    (rad/s)     (rad/s)     (rad/s)     (rad/s)     (rad/s)     (rad/s)     (rad/s)     (rad/s)     (deg)       (deg)       (deg)       (deg)       (deg)       (deg)       (deg)       (deg)       (user)      (user)      (user)      (user)      (user)      (user)      (user)      (user)      (user)      (user)      (user)      (user)
 0.0
 1.0
 2.0
 3.0
 4.0
 5.0
 6.0
 7.0
 8.0
 9.0
10.0


